# File generated by Flopy version 3.3.3 on 07/19/2021 at 15:11:13.
BEGIN options
END options

BEGIN griddata
  icelltype  LAYERED
    CONSTANT  1
    CONSTANT  0
    CONSTANT  0
  k  LAYERED
    CONSTANT  2.00000000E-04
    CONSTANT  1.00000000E-04
    INTERNAL  FACTOR  1.0
           0.00100000       0.00100000       0.00100000       0.00100000       0.00100000       0.00100000       1.00000000       1.00000000       1.00000000       1.00000000       1.00000000       1.00000000       1.00000000       1.00000000       0.00100000       0.00100000       0.00100000       0.00100000       0.00100000       0.00100000
           0.00100000       0.00100000       0.00100000       0.00100000       0.00100000       0.00100000       0.00100000       0.00100000       0.00100000       0.00100000       0.00100000       0.00100000       0.00100000       0.00100000       0.00100000       0.00100000       0.00100000       0.00100000       0.00100000       0.00100000
           0.00100000       0.00100000       0.00100000       0.00100000       0.00100000       0.00100000       1.00000000       1.00000000       1.00000000       1.00000000       1.00000000       1.00000000       1.00000000       0.00100000       0.00100000       0.00100000       0.00100000       0.00100000       0.00100000       0.00100000
           0.00100000       0.00100000       0.00100000       0.00100000       0.00100000       0.00100000       0.00100000       0.00100000       0.00100000       0.00100000       0.00100000       0.00100000       0.00100000       0.00100000       0.00100000       0.00100000       0.00100000       0.00100000       0.00100000       0.00100000
           0.00100000       0.00100000       0.00100000       0.00100000       0.00100000       0.00100000       1.00000000       1.00000000       1.00000000       1.00000000       1.00000000       1.00000000       0.00100000       0.00100000       0.00100000       0.00100000       0.00100000       0.00100000       0.00100000       0.00100000
           0.00100000       0.00100000       0.00100000       0.00100000       0.00100000       0.00100000       0.00100000       0.00100000       0.00100000       0.00100000       0.00100000       0.00100000       0.00100000       0.00100000       0.00100000       0.00100000       0.00100000       0.00100000       0.00100000       0.00100000
           0.00100000       0.00100000       0.00100000       0.00100000       0.00100000       0.00100000       1.00000000       1.00000000       1.00000000       1.00000000       1.00000000       1.00000000       0.00100000       0.00100000       0.00100000       0.00100000       0.00100000       0.00100000       0.00100000       0.00100000
           0.00100000       0.00100000       0.00100000       0.00100000       0.00100000       0.00100000       0.00100000       0.00100000       0.00100000       0.00100000       0.00100000       0.00100000       0.00100000       0.00100000       0.00100000       0.00100000       0.00100000       0.00100000       0.00100000       0.00100000
           0.00100000       0.00100000       0.00100000       0.00100000       0.00100000       0.00100000       1.00000000       1.00000000       1.00000000       1.00000000       1.00000000       0.00100000       0.00100000       0.00100000       0.00100000       0.00100000       0.00100000       0.00100000       0.00100000       0.00100000
           0.00100000       0.00100000       0.00100000       0.00100000       0.00100000       0.00100000       0.00100000       0.00100000       0.00100000       0.00100000       0.00100000       0.00100000       0.00100000       0.00100000       0.00100000       0.00100000       0.00100000       0.00100000       0.00100000       0.00100000
           0.00100000       0.00100000       0.00100000       0.00100000       0.00100000       0.00100000       1.00000000       1.00000000       1.00000000       1.00000000       1.00000000       0.00100000       0.00100000       0.00100000       0.00100000       0.00100000       0.00100000       0.00100000       0.00100000       0.00100000
           0.00100000       0.00100000       0.00100000       0.00100000       0.00100000       0.00100000       0.00100000       0.00100000       0.00100000       0.00100000       0.00100000       0.00100000       0.00100000       0.00100000       0.00100000       0.00100000       0.00100000       0.00100000       0.00100000       0.00100000
           0.00100000       0.00100000       0.00100000       0.00100000       0.00100000       0.00100000       1.00000000       1.00000000       1.00000000       1.00000000       1.00000000       0.00100000       0.00100000       0.00100000       0.00100000       0.00100000       0.00100000       0.00100000       0.00100000       0.00100000
           0.00100000       0.00100000       0.00100000       0.00100000       0.00100000       0.00100000       0.00100000       0.00100000       0.00100000       0.00100000       0.00100000       0.00100000       0.00100000       0.00100000       0.00100000       0.00100000       0.00100000       0.00100000       0.00100000       0.00100000
           0.00100000       0.00100000       0.00100000       0.00100000       0.00100000       0.00100000       1.00000000       1.00000000       1.00000000       1.00000000       1.00000000       0.00100000       0.00100000       0.00100000       0.00100000       0.00100000       0.00100000       0.00100000       0.00100000       0.00100000
           0.00100000       0.00100000       0.00100000       0.00100000       0.00100000       0.00100000       0.00100000       0.00100000       0.00100000       0.00100000       0.00100000       0.00100000       0.00100000       0.00100000       0.00100000       0.00100000       0.00100000       0.00100000       0.00100000       0.00100000
           0.00100000       0.00100000       0.00100000       0.00100000       0.00100000       0.00100000       0.00100000       1.00000000       1.00000000       1.00000000       1.00000000       1.00000000       0.00100000       0.00100000       0.00100000       0.00100000       0.00100000       0.00100000       0.00100000       0.00100000
           0.00100000       0.00100000       0.00100000       0.00100000       0.00100000       0.00100000       0.00100000       0.00100000       0.00100000       0.00100000       0.00100000       0.00100000       0.00100000       0.00100000       0.00100000       0.00100000       0.00100000       0.00100000       0.00100000       0.00100000
           0.00100000       0.00100000       0.00100000       0.00100000       0.00100000       0.00100000       0.00100000       0.00100000       1.00000000       1.00000000       1.00000000       1.00000000       0.00100000       0.00100000       0.00100000       0.00100000       0.00100000       0.00100000       0.00100000       0.00100000
           0.00100000       0.00100000       0.00100000       0.00100000       0.00100000       0.00100000       0.00100000       0.00100000       0.00100000       0.00100000       0.00100000       0.00100000       0.00100000       0.00100000       0.00100000       0.00100000       0.00100000       0.00100000       0.00100000       0.00100000
           0.00100000       0.00100000       0.00100000       0.00100000       0.00100000       0.00100000       0.00100000       0.00100000       1.00000000       1.00000000       1.00000000       1.00000000       1.00000000       0.00100000       0.00100000       0.00100000       0.00100000       0.00100000       0.00100000       0.00100000
           0.00100000       0.00100000       0.00100000       0.00100000       0.00100000       0.00100000       0.00100000       0.00100000       0.00100000       0.00100000       0.00100000       0.00100000       0.00100000       0.00100000       0.00100000       0.00100000       0.00100000       0.00100000       0.00100000       0.00100000
           0.00100000       0.00100000       0.00100000       0.00100000       0.00100000       0.00100000       0.00100000       0.00100000       0.00100000       1.00000000       1.00000000       1.00000000       1.00000000       1.00000000       0.00100000       0.00100000       0.00100000       0.00100000       0.00100000       0.00100000
           0.00100000       0.00100000       0.00100000       0.00100000       0.00100000       0.00100000       0.00100000       0.00100000       0.00100000       0.00100000       0.00100000       0.00100000       0.00100000       0.00100000       0.00100000       0.00100000       0.00100000       0.00100000       0.00100000       0.00100000
           0.00100000       0.00100000       0.00100000       0.00100000       0.00100000       0.00100000       0.00100000       0.00100000       0.00100000       0.00100000       1.00000000       1.00000000       1.00000000       1.00000000       0.00100000       0.00100000       0.00100000       0.00100000       0.00100000       0.00100000
           0.00100000       0.00100000       0.00100000       0.00100000       0.00100000       0.00100000       0.00100000       0.00100000       0.00100000       0.00100000       0.00100000       0.00100000       0.00100000       0.00100000       0.00100000       0.00100000       0.00100000       0.00100000       0.00100000       0.00100000
           0.00100000       0.00100000       0.00100000       0.00100000       0.00100000       0.00100000       0.00100000       0.00100000       0.00100000       0.00100000       1.00000000       1.00000000       1.00000000       1.00000000       1.00000000       0.00100000       0.00100000       0.00100000       0.00100000       0.00100000
           0.00100000       0.00100000       0.00100000       0.00100000       0.00100000       0.00100000       0.00100000       0.00100000       0.00100000       0.00100000       0.00100000       0.00100000       0.00100000       0.00100000       0.00100000       0.00100000       0.00100000       0.00100000       0.00100000       0.00100000
           0.00100000       0.00100000       0.00100000       0.00100000       0.00100000       0.00100000       0.00100000       0.00100000       0.00100000       0.00100000       0.00100000       1.00000000       1.00000000       1.00000000       1.00000000       1.00000000       0.00100000       0.00100000       0.00100000       0.00100000
           0.00100000       0.00100000       0.00100000       0.00100000       0.00100000       0.00100000       0.00100000       0.00100000       0.00100000       0.00100000       0.00100000       0.00100000       0.00100000       0.00100000       0.00100000       0.00100000       0.00100000       0.00100000       0.00100000       0.00100000
           0.00100000       0.00100000       0.00100000       0.00100000       0.00100000       0.00100000       0.00100000       0.00100000       0.00100000       0.00100000       0.00100000       1.00000000       1.00000000       1.00000000       1.00000000       1.00000000       0.00100000       0.00100000       0.00100000       0.00100000
           0.00100000       0.00100000       0.00100000       0.00100000       0.00100000       0.00100000       0.00100000       0.00100000       0.00100000       0.00100000       0.00100000       0.00100000       0.00100000       0.00100000       0.00100000       0.00100000       0.00100000       0.00100000       0.00100000       0.00100000
           0.00100000       0.00100000       0.00100000       0.00100000       0.00100000       0.00100000       0.00100000       0.00100000       0.00100000       0.00100000       0.00100000       1.00000000       1.00000000       1.00000000       1.00000000       1.00000000       0.00100000       0.00100000       0.00100000       0.00100000
           0.00100000       0.00100000       0.00100000       0.00100000       0.00100000       0.00100000       0.00100000       0.00100000       0.00100000       0.00100000       0.00100000       0.00100000       0.00100000       0.00100000       0.00100000       0.00100000       0.00100000       0.00100000       0.00100000       0.00100000
           0.00100000       0.00100000       0.00100000       0.00100000       0.00100000       0.00100000       0.00100000       0.00100000       0.00100000       0.00100000       0.00100000       1.00000000       1.00000000       1.00000000       1.00000000       1.00000000       0.00100000       0.00100000       0.00100000       0.00100000
           0.00100000       0.00100000       0.00100000       0.00100000       0.00100000       0.00100000       0.00100000       0.00100000       0.00100000       0.00100000       0.00100000       0.00100000       0.00100000       0.00100000       0.00100000       0.00100000       0.00100000       0.00100000       0.00100000       0.00100000
           0.00100000       0.00100000       0.00100000       0.00100000       0.00100000       0.00100000       0.00100000       0.00100000       0.00100000       0.00100000       0.00100000       1.00000000       1.00000000       1.00000000       1.00000000       1.00000000       1.00000000       0.00100000       0.00100000       0.00100000
           0.00100000       0.00100000       0.00100000       0.00100000       0.00100000       0.00100000       0.00100000       0.00100000       0.00100000       0.00100000       0.00100000       0.00100000       0.00100000       0.00100000       0.00100000       0.00100000       0.00100000       0.00100000       0.00100000       0.00100000
           0.00100000       0.00100000       0.00100000       0.00100000       0.00100000       0.00100000       0.00100000       0.00100000       0.00100000       0.00100000       0.00100000       1.00000000       1.00000000       1.00000000       1.00000000       1.00000000       1.00000000       0.00100000       0.00100000       0.00100000
           0.00100000       0.00100000       0.00100000       0.00100000       0.00100000       0.00100000       0.00100000       0.00100000       0.00100000       0.00100000       0.00100000       0.00100000       0.00100000       0.00100000       0.00100000       0.00100000       0.00100000       0.00100000       0.00100000       0.00100000
           0.00100000       0.00100000       0.00100000       0.00100000       0.00100000       0.00100000       0.00100000       0.00100000       0.00100000       0.00100000       1.00000000       1.00000000       1.00000000       1.00000000       1.00000000       1.00000000       1.00000000       0.00100000       0.00100000       0.00100000
           0.00100000       0.00100000       0.00100000       0.00100000       0.00100000       0.00100000       0.00100000       0.00100000       0.00100000       0.00100000       0.00100000       0.00100000       0.00100000       0.00100000       0.00100000       0.00100000       0.00100000       0.00100000       0.00100000       0.00100000
           0.00100000       0.00100000       0.00100000       0.00100000       0.00100000       0.00100000       0.00100000       0.00100000       0.00100000       0.00100000       1.00000000       1.00000000       1.00000000       1.00000000       1.00000000       1.00000000       1.00000000       0.00100000       0.00100000       0.00100000
           0.00100000       0.00100000       0.00100000       0.00100000       0.00100000       0.00100000       0.00100000       0.00100000       0.00100000       0.00100000       0.00100000       0.00100000       0.00100000       0.00100000       0.00100000       0.00100000       0.00100000       0.00100000       0.00100000       0.00100000
           0.00100000       0.00100000       0.00100000       0.00100000       0.00100000       0.00100000       0.00100000       0.00100000       0.00100000       1.00000000       1.00000000       1.00000000       1.00000000       1.00000000       1.00000000       1.00000000       1.00000000       0.00100000       0.00100000       0.00100000
           0.00100000       0.00100000       0.00100000       0.00100000       0.00100000       0.00100000       0.00100000       0.00100000       0.00100000       0.00100000       0.00100000       0.00100000       0.00100000       0.00100000       0.00100000       0.00100000       0.00100000       0.00100000       0.00100000       0.00100000
           0.00100000       0.00100000       0.00100000       0.00100000       0.00100000       0.00100000       0.00100000       0.00100000       0.00100000       1.00000000       1.00000000       1.00000000       1.00000000       1.00000000       1.00000000       1.00000000       1.00000000       0.00100000       0.00100000       0.00100000
           0.00100000       0.00100000       0.00100000       0.00100000       0.00100000       0.00100000       0.00100000       0.00100000       0.00100000       0.00100000       0.00100000       0.00100000       0.00100000       0.00100000       0.00100000       0.00100000       0.00100000       0.00100000       0.00100000       0.00100000
           0.00100000       0.00100000       0.00100000       0.00100000       0.00100000       0.00100000       0.00100000       0.00100000       0.00100000       1.00000000       1.00000000       1.00000000       1.00000000       1.00000000       1.00000000       1.00000000       1.00000000       0.00100000       0.00100000       0.00100000
           0.00100000       0.00100000       0.00100000       0.00100000       0.00100000       0.00100000       0.00100000       0.00100000       0.00100000       0.00100000       0.00100000       0.00100000       0.00100000       0.00100000       0.00100000       0.00100000       0.00100000       0.00100000       0.00100000       0.00100000
           0.00100000       0.00100000       0.00100000       0.00100000       0.00100000       0.00100000       0.00100000       0.00100000       1.00000000       1.00000000       1.00000000       1.00000000       1.00000000       1.00000000       1.00000000       1.00000000       1.00000000       0.00100000       0.00100000       0.00100000
           0.00100000       0.00100000       0.00100000       0.00100000       0.00100000       0.00100000       0.00100000       0.00100000       0.00100000       0.00100000       0.00100000       0.00100000       0.00100000       0.00100000       0.00100000       0.00100000       0.00100000       0.00100000       0.00100000       0.00100000
           0.00100000       0.00100000       0.00100000       0.00100000       0.00100000       0.00100000       0.00100000       0.00100000       1.00000000       1.00000000       1.00000000       1.00000000       1.00000000       1.00000000       1.00000000       1.00000000       1.00000000       0.00100000       0.00100000       0.00100000
           0.00100000       0.00100000       0.00100000       0.00100000       0.00100000       0.00100000       0.00100000       0.00100000       0.00100000       0.00100000       0.00100000       0.00100000       0.00100000       0.00100000       0.00100000       0.00100000       0.00100000       0.00100000       0.00100000       0.00100000
           0.00100000       0.00100000       0.00100000       0.00100000       0.00100000       0.00100000       0.00100000       1.00000000       1.00000000       1.00000000       1.00000000       1.00000000       1.00000000       1.00000000       1.00000000       1.00000000       1.00000000       1.00000000       0.00100000       0.00100000
           0.00100000       0.00100000       0.00100000       0.00100000       0.00100000       0.00100000       0.00100000       0.00100000       0.00100000       0.00100000       0.00100000       0.00100000       0.00100000       0.00100000       0.00100000       0.00100000       0.00100000       0.00100000       0.00100000       0.00100000
           0.00100000       0.00100000       0.00100000       0.00100000       0.00100000       0.00100000       0.00100000       1.00000000       1.00000000       1.00000000       1.00000000       1.00000000       1.00000000       1.00000000       1.00000000       1.00000000       1.00000000       1.00000000       0.00100000       0.00100000
           0.00100000       0.00100000       0.00100000       0.00100000       0.00100000       0.00100000       0.00100000       0.00100000       0.00100000       0.00100000       0.00100000       0.00100000       0.00100000       0.00100000       0.00100000       0.00100000       0.00100000       0.00100000       0.00100000       0.00100000
           0.00100000       0.00100000       0.00100000       0.00100000       0.00100000       1.00000000       1.00000000       1.00000000       1.00000000       1.00000000       1.00000000       1.00000000       1.00000000       1.00000000       1.00000000       1.00000000       1.00000000       1.00000000       0.00100000       0.00100000
           0.00100000       0.00100000       0.00100000       0.00100000       0.00100000       0.00100000       0.00100000       0.00100000       0.00100000       0.00100000       0.00100000       0.00100000       0.00100000       0.00100000       0.00100000       0.00100000       0.00100000       0.00100000       0.00100000       0.00100000
           0.00100000       0.00100000       0.00100000       0.00100000       1.00000000       1.00000000       1.00000000       1.00000000       1.00000000       1.00000000       1.00000000       1.00000000       1.00000000       1.00000000       1.00000000       1.00000000       1.00000000       0.00100000       0.00100000       0.00100000
           0.00100000       0.00100000       0.00100000       0.00100000       0.00100000       0.00100000       0.00100000       0.00100000       0.00100000       0.00100000       0.00100000       0.00100000       0.00100000       0.00100000       0.00100000       0.00100000       0.00100000       0.00100000       0.00100000       0.00100000
           0.00100000       0.00100000       0.00100000       0.00100000       1.00000000       1.00000000       1.00000000       1.00000000       1.00000000       1.00000000       1.00000000       1.00000000       1.00000000       1.00000000       1.00000000       1.00000000       1.00000000       0.00100000       0.00100000       0.00100000
           0.00100000       0.00100000       0.00100000       0.00100000       0.00100000       0.00100000       0.00100000       0.00100000       0.00100000       0.00100000       0.00100000       0.00100000       0.00100000       0.00100000       0.00100000       0.00100000       0.00100000       0.00100000       0.00100000       0.00100000
           0.00100000       0.00100000       0.00100000       1.00000000       1.00000000       1.00000000       1.00000000       1.00000000       1.00000000       1.00000000       1.00000000       1.00000000       1.00000000       1.00000000       1.00000000       1.00000000       1.00000000       0.00100000       0.00100000       0.00100000
           0.00100000       0.00100000       0.00100000       0.00100000       0.00100000       0.00100000       0.00100000       0.00100000       0.00100000       0.00100000       0.00100000       0.00100000       0.00100000       0.00100000       0.00100000       0.00100000       0.00100000       0.00100000       0.00100000       0.00100000
           0.00100000       0.00100000       1.00000000       1.00000000       1.00000000       1.00000000       1.00000000       1.00000000       1.00000000       1.00000000       1.00000000       1.00000000       1.00000000       1.00000000       1.00000000       1.00000000       0.00100000       0.00100000       0.00100000       0.00100000
           0.00100000       0.00100000       0.00100000       0.00100000       0.00100000       0.00100000       0.00100000       0.00100000       0.00100000       0.00100000       0.00100000       0.00100000       0.00100000       0.00100000       0.00100000       0.00100000       0.00100000       0.00100000       0.00100000       0.00100000
           0.00100000       0.00100000       1.00000000       1.00000000       1.00000000       1.00000000       1.00000000       1.00000000       1.00000000       1.00000000       1.00000000       1.00000000       1.00000000       1.00000000       1.00000000       1.00000000       0.00100000       0.00100000       0.00100000       0.00100000
           0.00100000       0.00100000       0.00100000       0.00100000       0.00100000       0.00100000       0.00100000       0.00100000       0.00100000       0.00100000       0.00100000       0.00100000       0.00100000       0.00100000       0.00100000       0.00100000       0.00100000       0.00100000       0.00100000       0.00100000
           0.00100000       1.00000000       1.00000000       1.00000000       1.00000000       1.00000000       1.00000000       1.00000000       1.00000000       1.00000000       1.00000000       1.00000000       1.00000000       1.00000000       1.00000000       0.00100000       0.00100000       0.00100000       0.00100000       0.00100000
           0.00100000       0.00100000       0.00100000       0.00100000       0.00100000       0.00100000       0.00100000       0.00100000       0.00100000       0.00100000       0.00100000       0.00100000       0.00100000       0.00100000       0.00100000       0.00100000       0.00100000       0.00100000       0.00100000       0.00100000
           0.00100000       1.00000000       1.00000000       1.00000000       1.00000000       1.00000000       1.00000000       1.00000000       1.00000000       1.00000000       1.00000000       1.00000000       1.00000000       1.00000000       1.00000000       0.00100000       0.00100000       0.00100000       0.00100000       0.00100000
           0.00100000       0.00100000       0.00100000       0.00100000       0.00100000       0.00100000       0.00100000       0.00100000       0.00100000       0.00100000       0.00100000       0.00100000       0.00100000       0.00100000       0.00100000       0.00100000       0.00100000       0.00100000       0.00100000       0.00100000
           0.00100000       1.00000000       1.00000000       1.00000000       1.00000000       1.00000000       1.00000000       1.00000000       1.00000000       1.00000000       1.00000000       1.00000000       1.00000000       1.00000000       0.00100000       0.00100000       0.00100000       0.00100000       0.00100000       0.00100000
           0.00100000       0.00100000       0.00100000       0.00100000       0.00100000       0.00100000       0.00100000       0.00100000       0.00100000       0.00100000       0.00100000       0.00100000       0.00100000       0.00100000       0.00100000       0.00100000       0.00100000       0.00100000       0.00100000       0.00100000
           0.00100000       1.00000000       1.00000000       1.00000000       1.00000000       1.00000000       1.00000000       1.00000000       1.00000000       1.00000000       1.00000000       1.00000000       0.00100000       0.00100000       0.00100000       0.00100000       0.00100000       0.00100000       0.00100000       0.00100000
           0.00100000       0.00100000       0.00100000       0.00100000       0.00100000       0.00100000       0.00100000       0.00100000       0.00100000       0.00100000       0.00100000       0.00100000       0.00100000       0.00100000       0.00100000       0.00100000       0.00100000       0.00100000       0.00100000       0.00100000
           0.00100000       1.00000000       1.00000000       1.00000000       1.00000000       1.00000000       1.00000000       1.00000000       1.00000000       1.00000000       1.00000000       1.00000000       0.00100000       0.00100000       0.00100000       0.00100000       0.00100000       0.00100000       0.00100000       0.00100000
           0.00100000       0.00100000       0.00100000       0.00100000       0.00100000       0.00100000       0.00100000       0.00100000       0.00100000       0.00100000       0.00100000       0.00100000       0.00100000       0.00100000       0.00100000       0.00100000       0.00100000       0.00100000       0.00100000       0.00100000
  k22  LAYERED
    CONSTANT  2.00000000E-04
    CONSTANT  1.00000000E-04
    INTERNAL  FACTOR  1.0
           0.00100000       0.00100000       0.00100000       0.00100000       0.00100000       0.00100000       1.00000000       1.00000000       1.00000000       1.00000000       1.00000000       1.00000000       1.00000000       1.00000000       0.00100000       0.00100000       0.00100000       0.00100000       0.00100000       0.00100000
           0.00100000       0.00100000       0.00100000       0.00100000       0.00100000       0.00100000       0.00100000       0.00100000       0.00100000       0.00100000       0.00100000       0.00100000       0.00100000       0.00100000       0.00100000       0.00100000       0.00100000       0.00100000       0.00100000       0.00100000
           0.00100000       0.00100000       0.00100000       0.00100000       0.00100000       0.00100000       1.00000000       1.00000000       1.00000000       1.00000000       1.00000000       1.00000000       1.00000000       0.00100000       0.00100000       0.00100000       0.00100000       0.00100000       0.00100000       0.00100000
           0.00100000       0.00100000       0.00100000       0.00100000       0.00100000       0.00100000       0.00100000       0.00100000       0.00100000       0.00100000       0.00100000       0.00100000       0.00100000       0.00100000       0.00100000       0.00100000       0.00100000       0.00100000       0.00100000       0.00100000
           0.00100000       0.00100000       0.00100000       0.00100000       0.00100000       0.00100000       1.00000000       1.00000000       1.00000000       1.00000000       1.00000000       1.00000000       0.00100000       0.00100000       0.00100000       0.00100000       0.00100000       0.00100000       0.00100000       0.00100000