# File generated by Flopy version 3.3.3 on 07/19/2021 at 15:11:13.
BEGIN options
  DIGITS  10
  PRINT_INPUT
END options

BEGIN continuous  FILEOUT  0
  head_obs  HEAD  3 19 28
END continuous  FILEOUT  0

