# File generated by Flopy version 3.3.3 on 07/19/2021 at 15:11:13.
BEGIN options
  BUDGET  FILEOUT  heathcote.cbb
  HEAD  FILEOUT  heathcote.hds
END options

BEGIN period  1
  SAVE  head  all
  SAVE  budget  all
  PRINT  head  last
END period  1

