# File generated by Flopy version 3.3.3 on 07/19/2021 at 15:11:13.
BEGIN options
END options

BEGIN dimensions
  MAXBOUND  56
END dimensions

BEGIN period  1
  1 8 23       0.00000000
  1 8 22       0.00000000
  1 8 21       0.00000000
  1 7 24       0.00000000
  1 7 23       0.00000000
  1 7 22       0.00000000
  1 7 21       0.00000000
  1 6 21       0.00000000
  1 6 25       0.00000000
  1 6 24       0.00000000
  1 6 23       0.00000000
  1 6 22       0.00000000
  1 6 20       0.00000000
  1 5 20       0.00000000
  1 5 26       0.00000000
  1 5 25       0.00000000
  1 5 24       0.00000000
  1 5 23       0.00000000
  1 5 22       0.00000000
  1 5 21       0.00000000
  1 5 19       0.00000000
  1 4 19       0.00000000
  1 4 21       0.00000000
  1 4 22       0.00000000
  1 4 23       0.00000000
  1 4 24       0.00000000
  1 4 25       0.00000000
  1 4 26       0.00000000
  1 4 20       0.00000000
  1 3 27       0.00000000
  1 3 26       0.00000000
  1 3 25       0.00000000
  1 3 24       0.00000000
  1 3 23       0.00000000
  1 3 22       0.00000000
  1 3 21       0.00000000
  1 3 20       0.00000000
  1 3 19       0.00000000
  1 2 27       0.00000000
  1 2 26       0.00000000
  1 2 25       0.00000000
  1 2 24       0.00000000
  1 2 23       0.00000000
  1 2 22       0.00000000
  1 2 21       0.00000000
  1 2 20       0.00000000
  1 2 19       0.00000000
  1 1 27       0.00000000
  1 1 26       0.00000000
  1 1 25       0.00000000
  1 1 24       0.00000000
  1 1 23       0.00000000
  1 1 22       0.00000000
  1 1 21       0.00000000
  1 1 20       0.00000000
  1 1 19       0.00000000
END period  1

