# File generated by Flopy version 3.3.3 on 07/19/2021 at 15:11:13.
BEGIN options
  SAVE_FLOWS
END options

BEGIN packages
  dis6  heathcote.dis  dis
  npf6  heathcote.npf  npf
  chd6  heathcote.chd  chd_0
  rch6  heathcote.rch  rch_0
  oc6  heathcote.oc  oc
  ic6  heathcote.ic  ic
  STO6  heathcote.sto  sto
  WEL6  heathcote.wel  wel
  OBS6  heathcote.obs  obs
END packages

