# File generated by Flopy version 3.3.3 on 07/19/2021 at 15:11:13.
BEGIN options
  XORIGIN       0.00000000
  YORIGIN   -4000.00000000
END options

BEGIN dimensions
  NLAY  3
  NROW  40
  NCOL  40
END dimensions

BEGIN griddata
  delr
    CONSTANT     100.00000000
  delc
    CONSTANT     100.00000000
  top
    INTERNAL  FACTOR  1.0
        35.14463681      33.26265072      31.38066464      29.49867856      27.61669248      25.73470640      23.85272031      21.97073423      20.08874815      18.20676207      16.32477599      14.44278990      12.56080382      10.67881774       8.79683166       6.91484558       5.03285950       3.22331154       0.95361196       0.00000000
         0.00000000       0.00000000       0.00000000       0.00000000       0.00000000       0.00000000       5.45261931      40.00000000      49.69821173      55.55702524      61.41583874      67.27465225      73.13346575      78.99227926      84.85109276      90.70990627      96.56871977     102.42753327     108.28634678     114.14516028
        35.81513422      33.93314814      32.05116206      30.16917597      28.28718989      26.40520381      24.52321773      22.64123165      20.75924556      18.87725948      16.99527340      15.11328732      13.23130124      11.34931516       9.46732907       8.01002935       5.51952910       3.02902884       0.53852859       0.00000000
         0.00000000       0.00000000       0.00000000       0.00000000       0.00000000       0.00000000       9.05662368      40.00000000      61.02967284      62.00993661      67.86875012      73.72756362      79.58637712      85.44519063      91.30400413      97.16281764     103.02163114     108.88044465     114.73925815     120.59807166
        36.48563163      34.60364555      32.72165947      30.83967339      28.95768731      27.07570122      25.19371514      23.31172906      21.42974298      19.54775690      17.66577082      15.78378473      14.47973619      12.57594649      10.08544623       7.59494597       5.10444572       2.61394546       0.12344521       0.00000000
         0.00000000       0.00000000       0.00000000       0.00000000       0.00000000       0.00000000      11.14529435      40.00000000      63.64079247      72.48776842      74.32166149      80.18047499      86.03928850      91.89810200      97.75691551     103.61572901     109.47454252     115.33335602     121.19216953     127.05098303
        37.15612905      35.27414297      33.39215688      31.51017080      29.62818472      27.74619864      25.86421256      23.98222648      22.10024039      20.63709668      19.57880035      17.14186362      14.65136336      12.16086311       9.67036285       7.17986260       4.68936234       2.35758462       0.04940233       0.00000000
         0.00000000       0.00000000       0.00000000       0.00000000       0.00000000       0.00000000      19.24707365      40.00000000      62.53239819      87.73536458      83.94586400      86.63338637      92.49219987      98.35101338     104.20982688     110.06864039     115.92745389     121.78626739     127.64508090     133.50389440
        37.82662646      35.94464038      34.06265430      32.18066822      30.29868213      28.41669605      26.79445718      25.73616084      24.19828101      21.70778075      19.21728050      16.72678024      14.23627999      11.94861945       9.81727838       7.75147252       5.54405145       3.09462955       1.08373425       0.00000000
         0.00000000       0.00000000       0.00000000       0.00000000       0.00000000      10.45818853      24.33423288      40.00000000      61.42400392      89.17080749      98.81700931      95.40395959      98.94511124     104.80392475     110.66273825     116.52155176     122.38036526     128.23917877     134.09799227     139.95680578
        38.49712388      36.61513779      34.73315171      32.95181767      31.89352134      30.83522500      28.76419814      26.27369789      23.78319763      21.53965429      19.40831321      17.27697214      15.15497226      13.15548693      11.03870056       8.58927867       6.76647923       5.20063845       2.74149918       0.13943778
         0.00000000       0.00000000       0.00000000       0.00000000       5.55586317      22.39158782      38.84217894      40.00000000      60.31560965      88.06241321     114.70243705     110.27510490     106.86205517     111.25683612     117.11564963     122.97446313     128.83327664     134.69209014     140.55090365     146.40971715
        39.16762129      38.05088183      36.99258550      35.82061553      33.33011528      31.13068913      28.99934805      26.86800698      24.73666590      22.60532483      20.55898667      18.55950134      16.53334968      14.08392778      12.32521401      10.75937323       9.19353244       7.00132551       4.39926411       1.79720271
         0.00000000       0.00000000       0.00000000       6.98513870      17.80679662      28.62845453      40.00000000      40.00000000      59.50052284      86.95401894     114.70082251     125.14625020     121.73320048     118.32015075     123.56856100     129.42737450     135.28618801     141.14500151     147.00381502     152.86262852
        50.28777906      40.00000000      38.59038289      36.45904181      34.32770074      32.19635966      30.06501859      27.96248642      25.96300109      23.96351575      21.96403042      19.57857690      17.88394879      16.31810801      14.75226722      13.18642644      11.26115184       8.65909044       6.05702904       3.45496764
         0.83462634       1.42700986       8.24932656      14.88670442      20.63171117      29.52184003      40.00000000      40.00000000      58.71110880      86.07746276     113.59242823     141.33923180     136.60434579     133.19129606     130.02147237     135.88028588     141.73909938     147.59791289     153.45672639     159.31553990
        73.60297558      49.55917919      39.65605342      37.52471235      35.39337128      33.36650083      31.36701550      29.36753016      27.36804483      25.07322601      23.44268357      21.87684279      20.31100200      18.74516122      17.17932044      15.52097817      12.91891677      10.31685537       7.71479397       5.03647437
         3.08892373       4.12184809       8.55079227      15.37807821      22.97493199      30.57178578      38.16863956      40.00000000      57.92169476      85.28804872     112.65440268     140.23083752     151.47549110     148.06244137     144.64939165     142.33319725     148.19201076     154.05082426     159.90963776     165.76845127
        96.91817210      73.10500813      50.52315324      38.77051524      36.77102991      34.77154458      32.77205924      30.56787513      29.00141835      27.43557757      25.86973678      24.30389600      22.73805522      21.17221443      19.60637365      17.17874310      14.57668170      11.97462030       9.23832240       8.07610626
         7.54502745       9.13193179      10.71883614      13.21581097      19.49930556      25.78280015      32.30820950      39.90506329      57.13228072      84.49863468     111.86498864     139.23134260     166.86924682     162.93358668     159.52053695     156.10748723     154.64492213     160.50373563     166.36254914     172.22136264
       120.23336862      96.94141051      77.21349605      43.00369220      38.17607365      36.12599391      34.56015313      32.99431235      31.42847156      29.86263078      28.29679000      26.73094921      25.16510843      23.59926765      21.43856943      18.83650803      16.23444663      14.02572752      13.06328879      12.10085005
        12.55511115      14.14201550      15.72891984      17.31582418      18.90272852      24.16432426      30.44781885      36.73131345      59.10369112      83.70922064     111.07557460     138.44192856     165.80828252     177.80473199     174.39168226     170.97863254     167.56558281     166.95664701     172.81546051     178.67427402
       143.54856514     125.14433387     101.25281766      67.04301381      40.00000000      38.55304713      36.98720634      35.42136556      33.85552478      32.28968399      30.72384321      29.15800243      27.59216164      25.69839576      23.09633436      20.44325050      19.01291005      18.05047132      17.08803258      16.12559385
        17.56519486      19.15209920      20.73900354      22.32590788      23.91281223      25.49971657      28.82934297      35.11283756      48.84802539      88.66413917     128.48025295     150.52069641     165.99359390     192.39926184     189.26282757     185.84977785     182.43672812     179.02367840     179.26837188     185.12718539
       167.19607016     159.50194312     126.03129223      89.09613694      48.92657033      40.00000000      39.41425956      37.84841877      36.28257799      34.71673720      33.15089642      31.58505564      29.95822209      27.35616069      24.96253131      24.00009258      23.03765384      22.07521511      21.11277638      20.98837421
        22.57527856      24.16218290      25.74908724      27.33599159      28.92289593      30.50980027      32.09670462      33.68360896      39.77785626      78.40847345     118.22458723     158.04070100     197.55932015     200.00000000     200.00000000     200.00000000     197.30787343     193.89482371     190.48177398     191.58009676
       200.00000000     186.30900948     149.35048685     109.18092024      68.51527293      40.00000000      40.00000000      40.00000000      38.70963120      37.14379042      35.57794963      34.01210885      31.61598702      29.94971384      28.98727511      28.02483637      27.06239764      26.09995890      25.13752017      25.99845792
        27.58536226      29.17226660      30.75917095      32.34607529      33.93297963      35.51988398      37.10678832      38.69369266      40.00000000      65.97807075     105.03558782     144.01297073     182.68533428     200.00000000     200.00000000     200.00000000     200.00000000     200.00000000     200.00000000     200.00000000
       200.00000000     200.00000000     165.45280390     123.43302886      78.97492206      40.00000000      40.00000000      40.00000000      40.00000000      39.57084363      38.00500285      35.89933510      34.93689637      33.97445763      33.01201890      32.04958017      31.08714143      30.12470270      29.42163728      31.00854162
        32.59544596      34.18235031      35.76925465      37.35615899      38.94306334      40.00000000      40.00000000      40.00000000      40.00000000      44.00821746      83.06573453     122.12325160     165.47561668     200.00000000     200.00000000     200.00000000     200.00000000     200.00000000     200.00000000     204.08600333
       200.00000000     200.00000000     175.24127311     131.44812528      87.65497746      43.82200043      40.00000000      40.00000000      40.00000000      40.00000000      40.00000000      39.92407890      38.96164016      37.99920143      37.03676269      36.07432396      35.11188522      34.14944649      34.43172098      36.01862532
        37.60552967      39.19243401      40.00000000      40.00000000      40.00000000      40.00000000      40.00000000      40.00000000      40.00000000      40.00000000      61.09588124     106.21045459     153.32764397     200.00000000     200.00000000     200.00000000     200.00000000     200.00000000     200.00000000     220.73744394
       200.00000000     200.00000000     175.24127311     130.93460760      84.64582070      40.00000000      40.00000000      40.00000000      40.00000000      40.00000000      40.00000000      40.00000000      40.00000000      40.00000000      40.00000000      40.00000000      39.13662902      38.17419028      39.44180468      40.00000000
        40.00000000      40.00000000      40.00000000      40.00000000      40.00000000      40.00000000      40.00000000      40.00000000      40.00000000      40.00000000      53.80576223     106.09113444     154.29000398     200.00000000     200.00000000     200.00000000     200.00000000     216.47766036     221.19632342     238.28145569
       200.00000000     200.00000000     168.91761030     125.14850923      78.85972233      40.00000000      40.00000000      40.00000000      40.00000000      40.00000000      40.00000000      40.00000000      40.00000000      40.00000000      40.00000000      40.00000000      40.00000000      40.00000000      40.00000000      40.00000000
        40.00000000      40.00000000      40.00000000      40.00000000      40.00000000      40.00000000      40.00000000      40.00000000      40.00000000      40.00000000      46.33642327      98.62179548     150.90716768     200.00000000     200.00000000     200.00000000     219.37695630     238.65846314     245.38073793     256.23541427
       200.00000000     200.00000000     159.00288499     108.87325300      67.69997939      40.00000000      40.00000000      40.00000000      40.00000000      40.06423602      52.39162096      49.30652289      40.00000000      40.00000000      40.00000000      40.00000000      40.00000000      40.00000000      40.00000000      40.00000000
        40.00000000      40.00000000      40.00000000      40.00000000      40.00000000      40.00000000      40.00000000      40.00000000      40.00000000      40.00000000      40.00000000      87.14248853     131.85886902     176.57843039     200.00000000     212.92050195     243.58866005     261.12291840     268.41319856     274.18937285
       200.00000000     200.00000000     150.15989902      99.75487904      49.34985907      40.00000000      40.00000000      52.62165979      69.76202729      82.08941223      94.41679717      80.59189008      40.18162444      40.00000000      40.00000000      40.00000000      40.00000000      40.00000000      40.00000000      40.00000000
        40.00000000      40.00000000      40.00000000      40.00000000      40.00000000      40.00000000      40.00000000      40.00000000      40.00000000      40.00000000      40.00000000      79.36841222     120.14903670     160.92966117     199.23585933     237.13220569     267.80036380     283.98707738     290.59400134     298.16793398
       200.00000000     180.72380446     134.76380032      87.58040809      40.00000000      40.00000000      53.96308077      82.13292177     110.30276278     124.11458844     136.44197337     111.87725726      72.59657376      40.00000000      40.00000000      40.00000000      40.00000000      40.00000000      40.00000000      40.00000000
        40.00000000      40.00000000      40.00000000      40.00000000      40.00000000      40.00000000      40.00000000      40.00000000      40.00000000      40.00000000      40.00000000      80.01572379     120.79634827     155.66347572     189.72915745     244.03567527     292.01206754     306.85123635     312.77480412     320.00000000
       200.00000000     163.55755547     118.53840042      74.08777194      48.42049402      53.71793000      83.45203065     111.64418375     139.81402475     165.92812791     178.46714958     144.03939274     105.14274681      66.24610089      40.00000000      40.00000000      40.00000000      57.00711538      60.39229912      63.77748287
        67.16266661      49.30413369      40.00000000      40.00000000      40.00000000      40.00000000      40.00000000      40.00000000      40.00000000      40.00000000      40.00000000      78.02541039     112.09109211     147.21999024     184.01759667     243.11654882     307.49534644     320.00000000     320.00000000     320.00000000
       200.00000000     157.27581288     123.94433354      88.34403317      74.55683715      87.62601330     105.44588040     131.66592755     162.26320834     192.86048912     200.00000000     169.01227044     130.27931266      91.34806239      58.39982751      43.93897447      59.56996674      88.97278463     110.49301894     113.87820269
       111.75716034      89.71491566      53.40700965      40.00000000      40.00000000      40.00000000      40.00000000      40.00000000      40.00000000      40.00000000      59.93979631      85.61265313     110.97701454     149.93498468     189.59832080     251.85599971     320.00000000     320.00000000     320.00000000     320.00000000
       199.46817307     163.34807590     129.35210338     115.56490735     102.28247004     116.51426482     132.70790838     157.17383079     181.63975321     200.00000000     200.00000000     184.32272477     141.13053404     109.81619414      87.67636844      75.26670994      86.11389014     116.85016346     146.64754288     163.97892251
       152.16794231     118.60714101      68.83069668      40.00000000      40.00000000      40.00000000      40.00000000      40.00000000      55.95311543      72.04816228      92.24721157     117.92006838     143.59292520     169.26578202     194.93863883     220.09533346     297.86788126     320.00000000     320.00000000     320.00000000
       200.00000000     170.36017359     156.57297756     142.78578154     131.60291442     145.27962334     163.73287232     184.43585878     212.38558658     221.96071801     200.00000000     188.36365836     157.10475861     125.39055567     113.31248343     110.14200230     106.97152117     143.44889527     173.59412487     200.00000000
       179.71377984     134.03082804      84.25438371      40.00000000      40.00000000      40.00000000      40.00000000      60.42829469      88.14320939     104.23825625     124.55462682     150.22748364     175.90034045     200.00000000     200.00000000     200.92427699     295.29245568     320.00000000     320.00000000     320.00000000
       200.00000000     197.58104777     183.79385175     170.00665572     160.92335879     174.04498187     192.49823084     212.79755334     250.31689499     262.02610611     236.67861581     194.81894584     163.10474290     151.35825691     148.18777578     145.01729466     141.84681353     165.05886510     200.00000000     200.00000000
       188.84585613     142.19783470      95.54981326      48.90179183      40.00000000      40.00000000      54.41609290      84.63635112     124.50844447     136.42835021     156.86204207     182.53489889     200.00000000     200.00000000     200.00000000     203.05394137     313.73772909     320.00000000     320.00000000     320.00000000
       202.88335683     200.00000000     200.00000000     197.22752990     190.24380317     200.00000000     200.00000000     222.28986515     278.46538563     302.51736818     261.16850616     201.53974511     189.40403040     186.23354927     183.06306814     179.89258701     176.72210589     185.35900150     200.00000000     200.00000000
       182.77073229     140.23568263     102.01207070      73.43377006      48.11508848      69.85419164      88.73288903     113.56633985     148.90529580     169.81711028     189.16945732     200.00000000     200.00000000     200.00000000     200.00000000     219.26877967     291.47623897     320.00000000     320.00000000     320.00000000
       207.18490415     200.00000000     200.00000000     200.00000000     200.00000000     200.00000000     219.89402106     258.39035198     302.88084111     320.00000000     275.95198958     209.92642897     200.00000000     200.00000000     200.00000000     200.00000000     200.00000000     207.03539335     205.76940428     201.91209359
       191.23351908     157.06360269     125.02046860      87.94711997      81.52805692      91.77281325     123.06784972     148.80147166     176.26859249     200.00000000     200.00000000     200.00000000     200.00000000     200.00000000     200.00000000     253.62601062     320.00000000     320.00000000     320.00000000     320.00000000
       211.48645146     200.00000000     200.00000000     200.00000000     200.00000000     230.10088834     262.05311027     290.96641724     320.00000000     320.00000000     275.28285475     216.95042490     200.00000000     200.00000000     200.00000000     200.00000000     200.00000000     233.07916354     245.62828211     241.77097141
       212.26742826     169.41224551     133.17940545     119.93981591     114.94102536     109.94223481     138.49498042     169.79001690     200.00000000     200.00000000     200.00000000     206.00849986     200.00000000     200.00000000     222.33168999     288.22570773     320.00000000     320.00000000     320.00000000     320.00000000
       215.78799878     200.00000000     200.00000000     200.00000000     239.28028937     279.33585713     312.63694445     320.00000000     320.00000000     295.38349998     244.63714046     200.00000000     200.00000000     200.00000000     200.00000000     200.00000000     239.09558888     260.53122190     285.48715993     267.63217821
       216.87268207     178.41169092     158.35157489     153.35278434     148.35399379     143.35520324     153.92211111     185.21714759     200.00000000     200.00000000     254.26564927     253.68007048     226.57761522     233.40137703     276.24497744     320.00000000     320.00000000     320.00000000     320.00000000     320.00000000
       220.08954610     200.00000000     200.00000000     225.93781774     251.84022532     293.64236171     320.00000000     320.00000000     320.00000000     313.09295212     272.68404990     233.86047787     202.34276912     200.00000000     200.00000000     236.86762883     280.27270896     317.30726316     320.00000000     279.90307751
       235.44007619     196.76333388     191.76454333     186.76575278     181.76696223     176.76817168     171.76938113     200.00000000     200.00000000     244.83417036     309.15623421     308.84028149     292.50231007     299.03621114     320.00000000     320.00000000     320.00000000     320.00000000     320.00000000     320.00000000
       233.85155231     203.47930312     200.00000000     229.15397759     270.32082380     301.96974747     320.00000000     320.00000000     320.00000000     320.00000000     310.99396717     276.27787923     246.85845429     216.92011695     207.83916249     270.09061831     316.31210159     320.00000000     320.00000000     295.50259519
       242.75308317     200.00000000     200.00000000     200.00000000     200.00000000     200.00000000     200.00000000     200.00000000     237.23804813     278.12305974     320.00000000     320.00000000     320.00000000     320.00000000     320.00000000     320.00000000     320.00000000     320.00000000     320.00000000     320.00000000
       249.03767694     226.81325113     200.11702897     232.37013744     273.53698365     314.31893811     320.00000000     320.00000000     320.00000000     320.00000000     320.00000000     320.00000000     291.90984277     267.48500258     262.20669013     298.96006319     320.00000000     320.00000000     320.00000000     293.76635635
       241.19088868     200.00000000     200.00000000     200.00000000     200.00000000     200.00000000     200.00000000     200.00000000     246.29990825     308.60901676     320.00000000     320.00000000     320.00000000     320.00000000     320.00000000     320.00000000     320.00000000     320.00000000     320.00000000     320.00000000
       264.22380157     249.82723566     228.38574538     237.00922159     277.14914580     317.28907001     320.00000000     320.00000000     320.00000000     320.00000000     320.00000000     320.00000000     320.00000000     320.00000000     316.70880914     320.00000000     320.00000000     320.00000000     320.00000000     307.30312899
       259.00649641     225.90675301     200.00000000     200.00000000     200.00000000     200.00000000     200.00000000     208.41121050     261.99119455     320.00000000     320.00000000     320.00000000     320.00000000     320.00000000     320.00000000     320.00000000     320.00000000     320.00000000     320.00000000     320.00000000
       279.40992620     272.84122019     264.89579786     272.86458519     283.25739512     320.00000000     320.00000000     320.00000000     320.00000000     320.00000000     320.00000000     320.00000000     320.00000000     320.00000000     320.00000000     320.00000000     320.00000000     320.00000000     320.00000000     320.00000000
       302.83102132     253.00841369     200.00000000     200.00000000     200.00000000     200.00000000     200.00000000     238.99543708     302.83638050     320.00000000     320.00000000     320.00000000     320.00000000     320.00000000     320.00000000     320.00000000     320.00000000     320.00000000     320.00000000     320.00000000
       302.81884554     303.60463798     302.28779987     310.25658721     318.22537454     320.00000000     320.00000000     320.00000000     320.00000000     320.00000000     320.00000000     320.00000000     320.00000000     320.00000000     320.00000000     320.00000000     320.00000000     320.00000000     320.00000000     320.00000000
       320.00000000     267.89317970     232.79268586     205.07679519     226.18847115     218.30635131     218.48670253     259.80793685     317.18642265     320.00000000     320.00000000     320.00000000     320.00000000     320.00000000     320.00000000     320.00000000     320.00000000     320.00000000     320.00000000     320.00000000
       320.00000000     320.00000000     320.00000000     320.00000000     320.00000000     320.00000000     320.00000000     320.00000000     320.00000000     320.00000000     320.00000000     320.00000000     320.00000000     320.00000000     320.00000000     320.00000000     320.00000000     320.00000000     320.00000000     320.00000000
       320.00000000     308.20076465     276.76471545     258.72339329     278.27328782     273.33579886     270.92271284     299.78336883     320.00000000     320.00000000     320.00000000     320.00000000     320.00000000     320.00000000     320.00000000     320.00000000     320.00000000     320.00000000     320.00000000     320.00000000
       320.00000000     320.00000000     320.00000000     320.00000000     320.00000000     320.00000000     320.00000000     320.00000000     320.00000000     320.00000000     320.00000000     320.00000000     320.00000000     320.00000000     320.00000000     320.00000000     320.00000000     320.00000000     320.00000000     320.00000000
       320.00000000     320.00000000     320.00000000     312.36999139     320.00000000     320.00000000     320.00000000     320.00000000     320.00000000     320.00000000     320.00000000     320.00000000     320.00000000     320.00000000     320.00000000     320.00000000     320.00000000     320.00000000     320.00000000     320.00000000
       320.00000000     320.00000000     320.00000000     320.00000000     320.00000000     320.00000000     320.00000000     320.00000000     320.00000000     320.00000000     320.00000000     320.00000000     320.00000000     320.00000000     320.00000000     320.00000000     320.00000000     320.00000000     320.00000000     320.00000000
       320.00000000     320.00000000     320.00000000     320.00000000     320.00000000     320.00000000     320.00000000     320.00000000     320.00000000     320.00000000     320.00000000     320.00000000     320.00000000     320.00000000     320.00000000     320.00000000     320.00000000     320.00000000     320.00000000     320.00000000
       320.00000000     320.00000000     320.00000000     320.00000000     320.00000000     320.00000000     320.00000000     320.00000000     320.00000000     320.00000000     320.00000000     320.00000000     320.00000000     320.00000000     320.00000000     320.00000000     320.00000000     320.00000000     320.00000000     320.00000000
       320.00000000     320.00000000     320.00000000     320.00000000     320.00000000     320.00000000     320.00000000     320.00000000     320.00000000     320.00000000     320.00000000     320.00000000     320.00000000     320.00000000     320.00000000     320.00000000     320.00000000     320.00000000     320.00000000     320.00000000
  botm  LAYERED
    CONSTANT      -5.00000000
    CONSTANT     -60.00000000
    CONSTANT     -90.00000000
  idomain  LAYERED
    INTERNAL  FACTOR  1
      1  1  1  1  1  1  1  1  1  1  1  1  1  1  1  1  1  1  1  1
      1  1  1  1  1  1  1  1  1  1  1  1  1  1  1  1  1  1  1  1
      1  1  1  1  1  1  1  1  1  1  1  1  1  1  1  1  1  1  1  1
      1  1  1  1  1  1  1  1  1  1  1  1  1  1  1  1  1  1  1  1
      1  1  1  1  1  1  1  1  1  1  1  1  1  1  1  1  1  1  1  1
      1  1  1  1  1  1  1  1  1  1  1  1  1  1  1  1  1  1  1  1
      1  1  1  1  1  1  1  1  1  1  1  1  1  1  1  1  1  1  1  1
      1  1  1  1  1  1  1  1  1  1  1  1  1  1  1  1  1  1  1  1
      1  1  1  1  1  1  1  1  1  1  1  1  1  1  1  1  1  1  1  1
      1  1  1  1  1  1  1  1  1  1  1  1  1  1  1  1  1  1  1  1
      1  1  1  1  1  1  1  1  1  1  1  1  1  1  1  1  1  1  1  1
      1  1  1  1  1  1  1  1  1  1  1  1  1  1  1  1  1  1  1  1
      1  1  1  1  1  1  1  1  1  1  1  1  1  1  1  1  1  1  1  1
      1  1  1  1  1  1  1  1  1  1  1  1  1  1  1  1  1  1  1  1
      1  1  1  1  1  1  1  1  1  1  1  1  1  1  1  1  1  1  1  1
      1  1  1  1  1  1  1  1  1  1  1  1  1  1  1  1  1  1  1  1
      1  1  1  1  1  1  1  1  1  1  1  1  1  1  1  1  1  1  1  1
      1  1  1  1  1  1  1  1  1  1  1  1  1  1  1  1  1  1  1  1
      1  1  1  1  1  1  1  1  1  1  1  1  1  1  1  1  1  1  1  1
      1  1  1  1  1  1  1  1  1  1  1  1  1  1  1  1  1  1  1  1
      1  1  1  1  1  1  1  1  1  1  1  1  1  1  1  1  1  1  1  1
      1  1  1  1  1  1  1  1  1  1  1  1  1  1  1  1  1  1  1  1
      1  1  1  1  1  1  1  1  1  1  1  1  1  1  1  1  1  1  1  1
      1  1  1  1  1  1  1  1  1  1  1  1  1  1  1  1  1  1  1  1
      1  1  1  1  1  1  1  1  1  1  1  1  1  1  1  1  1  1  1  1
      1  1  1  1  1  1  1  1  1  1  1  1  1  1  1  1  1  1  1  1
      1  1  1  1  1  1  1  1  1  1  1  1  1  1  1  1  1  1  1  1
      1  1  1  1  1  1  1  1  1  1  1  1  1  1  1  1  1  1  1  1
      1  1  1  1  1  1  1  1  1  1  1  1  1  1  1  1  1  1  1  1
      1  1  1  1  1  1  1  1  1  1  1  1  1  1  1  1  1  1  1  1
      1  1  1  1  1  1  1  1  1  1  1  1  1  1  1  1  1  1  1  1