# File generated by Flopy version 3.3.3 on 07/19/2021 at 15:11:13.
BEGIN options
END options

BEGIN dimensions
  MAXBOUND  1232
END dimensions

BEGIN period  1
  1 1 1  7.60514108E-09
  1 1 2  7.60514108E-09
  1 1 3  7.60514108E-09
  1 1 4  7.60514108E-09
  1 1 5  7.60514108E-09
  1 1 6  7.60514108E-09
  1 1 7  7.60514108E-09
  1 1 8  7.60514108E-09
  1 1 9  7.60514108E-09
  1 1 10  7.60514108E-09
  1 1 11  7.60514108E-09
  1 1 12  7.60514108E-09
  1 1 13  7.60514108E-09
  1 1 14  7.60514108E-09
  1 1 15  7.60514108E-09
  1 1 16  7.60514108E-09
  1 1 17  7.60514108E-09
  1 1 18  7.60514108E-09
  1 1 19  7.60514108E-09
  1 1 20  7.60514108E-09
  1 1 21  7.60514108E-09
  1 1 22  7.60514108E-09
  1 1 23  7.60514108E-09
  1 1 24  7.60514108E-09
  1 1 25  7.60514108E-09
  1 1 26  7.60514108E-09
  1 1 27  7.60514108E-09
  1 1 28  7.60514108E-09
  1 1 29  7.60514108E-09
  1 1 30  7.60514108E-09
  1 1 31  7.60514108E-09
  1 1 32  7.60514108E-09
  1 1 33  7.60514108E-09
  1 1 34  7.60514108E-09
  1 1 35  7.60514108E-09
  1 1 36  7.60514108E-09
  1 1 37  7.60514108E-09
  1 1 38  7.60514108E-09
  1 1 39  7.60514108E-09
  1 1 40  7.60514108E-09
  1 2 1  7.60514108E-09
  1 2 2  7.60514108E-09
  1 2 3  7.60514108E-09
  1 2 4  7.60514108E-09
  1 2 5  7.60514108E-09
  1 2 6  7.60514108E-09
  1 2 7  7.60514108E-09
  1 2 8  7.60514108E-09
  1 2 9  7.60514108E-09
  1 2 10  7.60514108E-09
  1 2 11  7.60514108E-09
  1 2 12  7.60514108E-09
  1 2 13  7.60514108E-09
  1 2 14  7.60514108E-09
  1 2 15  7.60514108E-09
  1 2 16  7.60514108E-09
  1 2 17  7.60514108E-09
  1 2 18  7.60514108E-09
  1 2 19  7.60514108E-09
  1 2 20  7.60514108E-09
  1 2 21  7.60514108E-09
  1 2 22  7.60514108E-09
  1 2 23  7.60514108E-09
  1 2 24  7.60514108E-09
  1 2 25  7.60514108E-09
  1 2 26  7.60514108E-09
  1 2 27  7.60514108E-09
  1 2 28  7.60514108E-09
  1 2 29  7.60514108E-09
  1 2 30  7.60514108E-09
  1 2 31  7.60514108E-09
  1 2 32  7.60514108E-09
  1 2 33  7.60514108E-09
  1 2 34  7.60514108E-09
  1 2 35  7.60514108E-09
  1 2 36  7.60514108E-09
  1 2 37  7.60514108E-09
  1 2 38  7.60514108E-09
  1 2 39  7.60514108E-09
  1 2 40  7.60514108E-09
  1 3 1  7.60514108E-09
  1 3 2  7.60514108E-09
  1 3 3  7.60514108E-09
  1 3 4  7.60514108E-09
  1 3 5  7.60514108E-09
  1 3 6  7.60514108E-09
  1 3 7  7.60514108E-09
  1 3 8  7.60514108E-09
  1 3 9  7.60514108E-09
  1 3 10  7.60514108E-09
  1 3 11  7.60514108E-09
  1 3 12  7.60514108E-09
  1 3 13  7.60514108E-09
  1 3 14  7.60514108E-09
  1 3 15  7.60514108E-09
  1 3 16  7.60514108E-09
  1 3 17  7.60514108E-09
  1 3 18  7.60514108E-09
  1 3 19  7.60514108E-09
  1 3 20  7.60514108E-09
  1 3 21  7.60514108E-09
  1 3 22  7.60514108E-09
  1 3 23  7.60514108E-09
  1 3 24  7.60514108E-09
  1 3 25  7.60514108E-09
  1 3 26  7.60514108E-09
  1 3 27  7.60514108E-09
  1 3 28  7.60514108E-09
  1 3 29  7.60514108E-09
  1 3 30  7.60514108E-09
  1 3 31  7.60514108E-09
  1 3 32  7.60514108E-09
  1 3 33  7.60514108E-09
  1 3 34  7.60514108E-09
  1 3 35  7.60514108E-09
  1 3 36  7.60514108E-09
  1 3 37  7.60514108E-09
  1 3 38  7.60514108E-09
  1 3 39  7.60514108E-09
  1 3 40  7.60514108E-09
  1 4 1  7.60514108E-09
  1 4 2  7.60514108E-09
  1 4 3  7.60514108E-09
  1 4 4  7.60514108E-09
  1 4 5  7.60514108E-09
  1 4 6  7.60514108E-09
  1 4 7  7.60514108E-09
  1 4 8  7.60514108E-09
  1 4 9  7.60514108E-09
  1 4 10  7.60514108E-09
  1 4 11  7.60514108E-09
  1 4 12  7.60514108E-09
  1 4 13  7.60514108E-09
  1 4 14  7.60514108E-09
  1 4 15  7.60514108E-09
  1 4 16  7.60514108E-09
  1 4 17  7.60514108E-09
  1 4 18  7.60514108E-09
  1 4 19  7.60514108E-09
  1 4 20  7.60514108E-09
  1 4 21  7.60514108E-09
  1 4 22  7.60514108E-09
  1 4 23  7.60514108E-09
  1 4 24  7.60514108E-09
  1 4 25  7.60514108E-09
  1 4 26  7.60514108E-09
  1 4 27  7.60514108E-09
  1 4 28  7.60514108E-09
  1 4 29  7.60514108E-09
  1 4 30  7.60514108E-09
  1 4 31  7.60514108E-09
  1 4 32  7.60514108E-09
  1 4 33  7.60514108E-09
  1 4 34  7.60514108E-09
  1 4 35  7.60514108E-09
  1 4 36  7.60514108E-09
  1 4 37  7.60514108E-09
  1 4 38  7.60514108E-09
  1 4 39  7.60514108E-09
  1 4 40  7.60514108E-09
  1 5 1  7.60514108E-09
  1 5 2  7.60514108E-09
  1 5 3  7.60514108E-09
  1 5 4  7.60514108E-09
  1 5 5  7.60514108E-09
  1 5 6  7.60514108E-09
  1 5 7  7.60514108E-09
  1 5 8  7.60514108E-09
  1 5 9  7.60514108E-09
  1 5 10  7.60514108E-09
  1 5 11  7.60514108E-09
  1 5 12  7.60514108E-09
  1 5 13  7.60514108E-09
  1 5 14  7.60514108E-09
  1 5 15  7.60514108E-09
  1 5 16  7.60514108E-09
  1 5 17  7.60514108E-09
  1 5 18  7.60514108E-09
  1 5 19  7.60514108E-09
  1 5 20  7.60514108E-09
  1 5 21  7.60514108E-09
  1 5 22  7.60514108E-09
  1 5 23  7.60514108E-09
  1 5 24  7.60514108E-09
  1 5 25  7.60514108E-09
  1 5 26  7.60514108E-09
  1 5 27  7.60514108E-09
  1 5 28  7.60514108E-09
  1 5 29  7.60514108E-09
  1 5 30  7.60514108E-09
  1 5 31  7.60514108E-09
  1 5 32  7.60514108E-09
  1 5 33  7.60514108E-09
  1 5 34  7.60514108E-09
  1 5 35  7.60514108E-09
  1 5 36  7.60514108E-09
  1 5 37  7.60514108E-09
  1 5 38  7.60514108E-09
  1 5 39  7.60514108E-09
  1 5 40  7.60514108E-09
  1 6 1  7.60514108E-09
  1 6 2  7.60514108E-09
  1 6 3  7.60514108E-09
  1 6 4  7.60514108E-09
  1 6 5  7.60514108E-09
  1 6 6  7.60514108E-09
  1 6 7  7.60514108E-09
  1 6 8  7.60514108E-09
  1 6 9  7.60514108E-09
  1 6 10  7.60514108E-09
  1 6 11  7.60514108E-09
  1 6 12  7.60514108E-09
  1 6 13  7.60514108E-09
  1 6 14  7.60514108E-09
  1 6 15  7.60514108E-09
  1 6 16  7.60514108E-09
  1 6 17  7.60514108E-09
  1 6 18  7.60514108E-09
  1 6 19  7.60514108E-09
  1 6 20  7.60514108E-09
  1 6 21  7.60514108E-09
  1 6 22  7.60514108E-09
  1 6 23  7.60514108E-09
  1 6 24  7.60514108E-09
  1 6 25  7.60514108E-09
  1 6 26  7.60514108E-09
  1 6 27  7.60514108E-09
  1 6 28  7.60514108E-09
  1 6 29  7.60514108E-09
  1 6 30  7.60514108E-09
  1 6 31  7.60514108E-09
  1 6 32  7.60514108E-09
  1 6 33  7.60514108E-09
  1 6 34  7.60514108E-09
  1 6 35  7.60514108E-09
  1 6 36  7.60514108E-09
  1 6 37  7.60514108E-09
  1 6 38  7.60514108E-09
  1 6 39  7.60514108E-09
  1 6 40  7.60514108E-09
  1 7 1  7.60514108E-09
  1 7 2  7.60514108E-09
  1 7 3  7.60514108E-09
  1 7 4  7.60514108E-09
  1 7 5  7.60514108E-09
  1 7 6  7.60514108E-09
  1 7 7  7.60514108E-09
  1 7 8  7.60514108E-09
  1 7 9  7.60514108E-09
  1 7 10  7.60514108E-09
  1 7 11  7.60514108E-09
  1 7 12  7.60514108E-09
  1 7 13  7.60514108E-09
  1 7 14  7.60514108E-09
  1 7 15  7.60514108E-09
  1 7 16  7.60514108E-09
  1 7 17  7.60514108E-09
  1 7 18  7.60514108E-09
  1 7 19  7.60514108E-09
  1 7 20  7.60514108E-09
  1 7 21  7.60514108E-09
  1 7 22  7.60514108E-09
  1 7 23  7.60514108E-09
  1 7 24  7.60514108E-09
  1 7 25  7.60514108E-09
  1 7 26  7.60514108E-09
  1 7 27  7.60514108E-09
  1 7 28  7.60514108E-09
  1 7 29  7.60514108E-09
  1 7 30  7.60514108E-09
  1 7 31  7.60514108E-09
  1 7 32  7.60514108E-09
  1 7 33  7.60514108E-09
  1 7 34  7.60514108E-09
  1 7 35  7.60514108E-09
  1 7 36  7.60514108E-09
  1 7 37  7.60514108E-09
  1 7 38  7.60514108E-09
  1 7 39  7.60514108E-09
  1 7 40  7.60514108E-09
  1 8 1  7.60514108E-09
  1 8 2  7.60514108E-09
  1 8 3  7.60514108E-09
  1 8 4  7.60514108E-09
  1 8 5  7.60514108E-09
  1 8 6  7.60514108E-09
  1 8 7  7.60514108E-09
  1 8 8  7.60514108E-09
  1 8 9  7.60514108E-09
  1 8 10  7.60514108E-09
  1 8 11  7.60514108E-09
  1 8 12  7.60514108E-09
  1 8 13  7.60514108E-09
  1 8 14  7.60514108E-09
  1 8 15  7.60514108E-09
  1 8 16  7.60514108E-09
  1 8 17  7.60514108E-09
  1 8 18  7.60514108E-09
  1 8 19  7.60514108E-09
  1 8 20  7.60514108E-09
  1 8 21  7.60514108E-09
  1 8 22  7.60514108E-09
  1 8 23  7.60514108E-09
  1 8 24  7.60514108E-09
  1 8 25  7.60514108E-09
  1 8 26  7.60514108E-09
  1 8 27  7.60514108E-09
  1 8 28  7.60514108E-09
  1 8 29  7.60514108E-09
  1 8 30  7.60514108E-09
  1 8 31  7.60514108E-09
  1 8 32  7.60514108E-09
  1 8 33  7.60514108E-09
  1 8 34  7.60514108E-09
  1 8 35  7.60514108E-09
  1 8 36  7.60514108E-09
  1 8 37  7.60514108E-09
  1 8 38  7.60514108E-09
  1 8 39  7.60514108E-09
  1 8 40  7.60514108E-09
  1 9 1  7.60514108E-09
  1 9 2  7.60514108E-09
  1 9 3  7.60514108E-09
  1 9 4  7.60514108E-09
  1 9 5  7.60514108E-09
  1 9 6  7.60514108E-09
  1 9 7  7.60514108E-09
  1 9 8  7.60514108E-09
  1 9 9  7.60514108E-09
  1 9 10  7.60514108E-09
  1 9 11  7.60514108E-09
  1 9 12  7.60514108E-09
  1 9 13  7.60514108E-09
  1 9 14  7.60514108E-09
  1 9 15  7.60514108E-09
  1 9 16  7.60514108E-09
  1 9 17  7.60514108E-09
  1 9 18  7.60514108E-09
  1 9 19  7.60514108E-09
  1 9 20  7.60514108E-09
  1 9 21  7.60514108E-09
  1 9 22  7.60514108E-09
  1 9 23  7.60514108E-09
  1 9 24  7.60514108E-09
  1 9 25  7.60514108E-09
  1 9 26  7.60514108E-09
  1 9 27  7.60514108E-09
  1 9 28  7.60514108E-09
  1 9 29  7.60514108E-09
  1 9 30  7.60514108E-09
  1 9 31  7.60514108E-09
  1 9 32  7.60514108E-09
  1 9 33  7.60514108E-09
  1 9 34  7.60514108E-09
  1 9 35  7.60514108E-09
  1 9 36  7.60514108E-09
  1 9 37  7.60514108E-09
  1 9 38  7.60514108E-09
  1 9 39  7.60514108E-09
  1 9 40  7.60514108E-09
  1 10 1  7.60514108E-09
  1 10 2  7.60514108E-09
  1 10 3  7.60514108E-09
  1 10 4  7.60514108E-09
  1 10 5  7.60514108E-09
  1 10 6  7.60514108E-09
  1 10 7  7.60514108E-09
  1 10 8  7.60514108E-09
  1 10 9  7.60514108E-09
  1 10 10  7.60514108E-09
  1 10 11  7.60514108E-09
  1 10 12  7.60514108E-09
  1 10 13  7.60514108E-09
  1 10 14  7.60514108E-09
  1 10 15  7.60514108E-09
  1 10 16  7.60514108E-09
  1 10 17  7.60514108E-09
  1 10 18  7.60514108E-09
  1 10 19  7.60514108E-09
  1 10 20  7.60514108E-09
  1 10 21  7.60514108E-09
  1 10 22  7.60514108E-09
  1 10 23  7.60514108E-09
  1 10 24  7.60514108E-09
  1 10 25  7.60514108E-09
  1 10 26  7.60514108E-09
  1 10 27  7.60514108E-09
  1 10 28  7.60514108E-09
  1 10 29  7.60514108E-09
  1 10 30  7.60514108E-09
  1 10 31  7.60514108E-09
  1 10 32  7.60514108E-09
  1 10 33  7.60514108E-09
  1 10 34  7.60514108E-09
  1 10 35  7.60514108E-09
  1 10 36  7.60514108E-09
  1 10 37  7.60514108E-09
  1 10 38  7.60514108E-09
  1 10 39  7.60514108E-09
  1 10 40  7.60514108E-09
  1 11 1  7.60514108E-09
  1 11 2  7.60514108E-09
  1 11 3  7.60514108E-09
  1 11 4  7.60514108E-09
  1 11 5  7.60514108E-09
  1 11 6  7.60514108E-09
  1 11 7  7.60514108E-09
  1 11 8  7.60514108E-09
  1 11 9  7.60514108E-09
  1 11 10  7.60514108E-09
  1 11 11  7.60514108E-09
  1 11 12  7.60514108E-09
  1 11 13  7.60514108E-09
  1 11 14  7.60514108E-09
  1 11 15  7.60514108E-09
  1 11 16  7.60514108E-09
  1 11 17  7.60514108E-09
  1 11 18  7.60514108E-09
  1 11 19  7.60514108E-09
  1 11 20  7.60514108E-09
  1 11 21  7.60514108E-09
  1 11 22  7.60514108E-09
  1 11 23  7.60514108E-09
  1 11 24  7.60514108E-09
  1 11 25  7.60514108E-09
  1 11 26  7.60514108E-09
  1 11 27  7.60514108E-09
  1 11 28  7.60514108E-09
  1 11 29  7.60514108E-09
  1 11 30  7.60514108E-09
  1 11 31  7.60514108E-09
  1 11 32  7.60514108E-09
  1 11 33  7.60514108E-09
  1 11 34  7.60514108E-09
  1 11 35  7.60514108E-09
  1 11 36  7.60514108E-09
  1 11 37  7.60514108E-09
  1 11 38  7.60514108E-09
  1 11 39  7.60514108E-09
  1 11 40  7.60514108E-09
  1 12 1  7.60514108E-09
  1 12 2  7.60514108E-09
  1 12 3  7.60514108E-09
  1 12 4  7.60514108E-09
  1 12 5  7.60514108E-09
  1 12 6  7.60514108E-09
  1 12 7  7.60514108E-09
  1 12 8  7.60514108E-09
  1 12 9  7.60514108E-09
  1 12 10  7.60514108E-09
  1 12 11  7.60514108E-09
  1 12 12  7.60514108E-09
  1 12 13  7.60514108E-09
  1 12 14  7.60514108E-09
  1 12 15  7.60514108E-09
  1 12 16  7.60514108E-09
  1 12 17  7.60514108E-09
  1 12 18  7.60514108E-09
  1 12 19  7.60514108E-09
  1 12 20  7.60514108E-09
  1 12 21  7.60514108E-09
  1 12 22  7.60514108E-09
  1 12 23  7.60514108E-09
  1 12 24  7.60514108E-09
  1 12 25  7.60514108E-09
  1 12 26  7.60514108E-09
  1 12 27  7.60514108E-09
  1 12 28  7.60514108E-09
  1 12 29  7.60514108E-09
  1 12 30  7.60514108E-09
  1 12 31  7.60514108E-09
  1 12 32  7.60514108E-09
  1 12 33  7.60514108E-09
  1 12 34  7.60514108E-09
  1 12 35  7.60514108E-09
  1 12 36  7.60514108E-09
  1 12 37  7.60514108E-09
  1 12 38  7.60514108E-09
  1 12 39  7.60514108E-09
  1 12 40  7.60514108E-09
  1 13 1  7.60514108E-09
  1 13 2  7.60514108E-09
  1 13 3  7.60514108E-09
  1 13 4  7.60514108E-09
  1 13 5  7.60514108E-09
  1 13 6  7.60514108E-09
  1 13 7  7.60514108E-09
  1 13 8  7.60514108E-09
  1 13 9  7.60514108E-09
  1 13 10  7.60514108E-09
  1 13 11  7.60514108E-09
  1 13 12  7.60514108E-09
  1 13 13  7.60514108E-09
  1 13 14  7.60514108E-09
  1 13 15  7.60514108E-09
  1 13 16  7.60514108E-09
  1 13 17  7.60514108E-09
  1 13 18  7.60514108E-09
  1 13 19  7.60514108E-09
  1 13 20  7.60514108E-09
  1 13 21  7.60514108E-09
  1 13 22  7.60514108E-09
  1 13 23  7.60514108E-09
  1 13 24  7.60514108E-09
  1 13 25  7.60514108E-09
  1 13 26  7.60514108E-09
  1 13 27  7.60514108E-09
  1 13 28  7.60514108E-09
  1 13 29  7.60514108E-09
  1 13 30  7.60514108E-09
  1 13 31  7.60514108E-09
  1 13 32  7.60514108E-09
  1 13 33  7.60514108E-09
  1 13 34  7.60514108E-09
  1 13 35  7.60514108E-09
  1 13 36  7.60514108E-09
  1 13 37  7.60514108E-09
  1 13 38  7.60514108E-09
  1 13 39  7.60514108E-09
  1 13 40  7.60514108E-09
  1 14 1  7.60514108E-09
  1 14 2  7.60514108E-09
  1 14 3  7.60514108E-09
  1 14 4  7.60514108E-09
  1 14 5  7.60514108E-09
  1 14 6  7.60514108E-09
  1 14 7  7.60514108E-09
  1 14 8  7.60514108E-09
  1 14 9  7.60514108E-09
  1 14 10  7.60514108E-09
  1 14 11  7.60514108E-09
  1 14 12  7.60514108E-09
  1 14 13  7.60514108E-09
  1 14 14  7.60514108E-09
  1 14 15  7.60514108E-09
  1 14 16  7.60514108E-09
  1 14 17  7.60514108E-09
  1 14 18  7.60514108E-09
  1 14 19  7.60514108E-09
  1 14 20  7.60514108E-09
  1 14 21  7.60514108E-09
  1 14 22  7.60514108E-09
  1 14 23  7.60514108E-09
  1 14 24  7.60514108E-09
  1 14 25  7.60514108E-09
  1 14 26  7.60514108E-09
  1 14 27  7.60514108E-09
  1 14 28  7.60514108E-09
  1 14 29  7.60514108E-09
  1 14 30  7.60514108E-09
  1 14 31  7.60514108E-09
  1 14 32  7.60514108E-09
  1 14 33  7.60514108E-09
  1 14 34  7.60514108E-09
  1 14 35  7.60514108E-09
  1 14 36  7.60514108E-09
  1 14 37  7.60514108E-09
  1 14 38  7.60514108E-09
  1 14 39  7.60514108E-09
  1 14 40  7.60514108E-09
  1 15 1  7.60514108E-09
  1 15 2  7.60514108E-09
  1 15 3  7.60514108E-09
  1 15 4  7.60514108E-09
  1 15 5  7.60514108E-09
  1 15 6  7.60514108E-09
  1 15 7  7.60514108E-09
  1 15 8  7.60514108E-09
  1 15 9  7.60514108E-09
  1 15 10  7.60514108E-09
  1 15 11  7.60514108E-09
  1 15 12  7.60514108E-09
  1 15 13  7.60514108E-09
  1 15 14  7.60514108E-09
  1 15 15  7.60514108E-09
  1 15 16  7.60514108E-09
  1 15 17  7.60514108E-09
  1 15 18  7.60514108E-09
  1 15 19  7.60514108E-09
  1 15 20  7.60514108E-09
  1 15 21  7.60514108E-09
  1 15 22  7.60514108E-09
  1 15 23  7.60514108E-09
  1 15 24  7.60514108E-09
  1 15 25  7.60514108E-09
  1 15 26  7.60514108E-09
  1 15 27  7.60514108E-09
  1 15 28  7.60514108E-09
  1 15 29  7.60514108E-09
  1 15 30  7.60514108E-09
  1 15 31  7.60514108E-09
  1 15 32  7.60514108E-09
  1 15 33  7.60514108E-09
  1 15 34  7.60514108E-09
  1 15 35  7.60514108E-09
  1 15 36  7.60514108E-09
  1 15 37  7.60514108E-09
  1 15 38  7.60514108E-09
  1 15 39  7.60514108E-09
  1 15 40  7.60514108E-09
  1 16 1  7.60514108E-09
  1 16 2  7.60514108E-09
  1 16 3  7.60514108E-09
  1 16 4  7.60514108E-09
  1 16 5  7.60514108E-09
  1 16 6  7.60514108E-09
  1 16 7  7.60514108E-09
  1 16 8  7.60514108E-09
  1 16 9  7.60514108E-09
  1 16 10  7.60514108E-09
  1 16 11  7.60514108E-09
  1 16 12  7.60514108E-09
  1 16 13  7.60514108E-09
  1 16 14  7.60514108E-09
  1 16 15  7.60514108E-09
  1 16 16  7.60514108E-09
  1 16 17  7.60514108E-09
  1 16 18  7.60514108E-09
  1 16 19  7.60514108E-09
  1 16 20  7.60514108E-09
  1 16 21  7.60514108E-09
  1 16 22  7.60514108E-09
  1 16 23  7.60514108E-09
  1 16 24  7.60514108E-09
  1 16 25  7.60514108E-09
  1 16 26  7.60514108E-09
  1 16 27  7.60514108E-09
  1 16 28  7.60514108E-09
  1 16 29  7.60514108E-09
  1 16 30  7.60514108E-09
  1 16 31  7.60514108E-09
  1 16 32  7.60514108E-09
  1 16 33  7.60514108E-09
  1 16 34  7.60514108E-09
  1 16 35  7.60514108E-09
  1 16 36  7.60514108E-09
  1 16 37  7.60514108E-09
  1 16 38  7.60514108E-09
  1 16 39  7.60514108E-09
  1 16 40  7.60514108E-09
  1 17 1  7.60514108E-09
  1 17 2  7.60514108E-09
  1 17 3  7.60514108E-09
  1 17 4  7.60514108E-09
  1 17 5  7.60514108E-09
  1 17 6  7.60514108E-09
  1 17 7  7.60514108E-09
  1 17 8  7.60514108E-09
  1 17 9  7.60514108E-09
  1 17 10  7.60514108E-09
  1 17 11  7.60514108E-09
  1 17 12  7.60514108E-09
  1 17 13  7.60514108E-09
  1 17 14  7.60514108E-09
  1 17 15  7.60514108E-09
  1 17 16  7.60514108E-09
  1 17 17  7.60514108E-09
  1 17 18  7.60514108E-09
  1 17 19  7.60514108E-09
  1 17 20  7.60514108E-09
  1 17 21  7.60514108E-09
  1 17 22  7.60514108E-09
  1 17 23  7.60514108E-09
  1 17 24  7.60514108E-09
  1 17 25  7.60514108E-09
  1 17 26  7.60514108E-09
  1 17 27  7.60514108E-09
  1 17 28  7.60514108E-09
  1 17 29  7.60514108E-09
  1 17 30  7.60514108E-09
  1 17 31  7.60514108E-09
  1 17 32  7.60514108E-09
  1 17 33  7.60514108E-09
  1 17 34  7.60514108E-09
  1 17 35  7.60514108E-09
  1 17 36  7.60514108E-09
  1 17 37  7.60514108E-09
  1 17 38  7.60514108E-09
  1 17 39  7.60514108E-09
  1 17 40  7.60514108E-09
  1 18 1  7.60514108E-09
  1 18 2  7.60514108E-09
  1 18 3  7.60514108E-09
  1 18 4  7.60514108E-09
  1 18 5  7.60514108E-09
  1 18 6  7.60514108E-09
  1 18 7  7.60514108E-09
  1 18 8  7.60514108E-09
  1 18 9  7.60514108E-09
  1 18 10  7.60514108E-09
  1 18 11  7.60514108E-09
  1 18 12  7.60514108E-09
  1 18 13  7.60514108E-09
  1 18 14  7.60514108E-09
  1 18 15  7.60514108E-09
  1 18 16  7.60514108E-09
  1 18 17  7.60514108E-09
  1 18 18  7.60514108E-09
  1 18 19  7.60514108E-09
  1 18 20  7.60514108E-09
  1 18 21  7.60514108E-09
  1 18 22  7.60514108E-09
  1 18 23  7.60514108E-09
  1 18 24  7.60514108E-09
  1 18 25  7.60514108E-09
  1 18 26  7.60514108E-09
  1 18 27  7.60514108E-09
  1 18 28  7.60514108E-09
  1 18 29  7.60514108E-09
  1 18 30  7.60514108E-09
  1 18 31  7.60514108E-09
  1 18 32  7.60514108E-09
  1 18 33  7.60514108E-09
  1 18 34  7.60514108E-09
  1 18 35  7.60514108E-09
  1 18 36  7.60514108E-09
  1 18 37  7.60514108E-09
  1 18 38  7.60514108E-09
  1 18 39  7.60514108E-09
  1 18 40  7.60514108E-09
  1 19 1  7.60514108E-09
  1 19 2  7.60514108E-09
  1 19 3  7.60514108E-09
  1 19 4  7.60514108E-09
  1 19 5  7.60514108E-09
  1 19 6  7.60514108E-09
  1 19 7  7.60514108E-09
  1 19 8  7.60514108E-09
  1 19 9  7.60514108E-09
  1 19 10  7.60514108E-09
  1 19 11  7.60514108E-09
  1 19 12  7.60514108E-09
  1 19 13  7.60514108E-09
  1 19 14  7.60514108E-09
  1 19 15  7.60514108E-09
  1 19 16  7.60514108E-09
  1 19 17  7.60514108E-09
  1 19 18  7.60514108E-09
  1 19 19  7.60514108E-09
  1 19 20  7.60514108E-09
  1 19 21  7.60514108E-09
  1 19 22  7.60514108E-09
  1 19 23  7.60514108E-09
  1 19 24  7.60514108E-09
  1 19 25  7.60514108E-09
  1 19 26  7.60514108E-09
  1 19 27  7.60514108E-09
  1 19 28  7.60514108E-09
  1 19 29  7.60514108E-09
  1 19 30  7.60514108E-09
  1 19 31  7.60514108E-09
  1 19 32  7.60514108E-09
  1 19 33  7.60514108E-09
  1 19 34  7.60514108E-09
  1 19 35  7.60514108E-09
  1 19 36  7.60514108E-09
  1 19 37  7.60514108E-09
  1 19 38  7.60514108E-09
  1 19 39  7.60514108E-09
  1 19 40  7.60514108E-09
  1 20 1  7.60514108E-09
  1 20 2  7.60514108E-09
  1 20 3  7.60514108E-09
  1 20 4  7.60514108E-09
  1 20 5  7.60514108E-09
  1 20 6  7.60514108E-09
  1 20 7  7.60514108E-09
  1 20 8  7.60514108E-09
  1 20 9  7.60514108E-09
  1 20 10  7.60514108E-09
  1 20 11  7.60514108E-09
  1 20 12  7.60514108E-09
  1 20 13  7.60514108E-09
  1 20 14  7.60514108E-09
  1 20 15  7.60514108E-09
  1 20 16  7.60514108E-09
  1 20 17  7.60514108E-09
  1 20 18  7.60514108E-09
  1 20 19  7.60514108E-09
  1 20 20  7.60514108E-09
  1 20 21  7.60514108E-09
  1 20 22  7.60514108E-09
  1 20 23  7.60514108E-09
  1 20 24  7.60514108E-09
  1 20 25  7.60514108E-09
  1 20 26  7.60514108E-09
  1 20 27  7.60514108E-09
  1 20 28  7.60514108E-09
  1 20 29  7.60514108E-09
  1 20 30  7.60514108E-09
  1 20 31  7.60514108E-09
  1 20 32  7.60514108E-09
  1 20 33  7.60514108E-09
  1 20 34  7.60514108E-09
  1 20 35  7.60514108E-09
  1 20 36  7.60514108E-09
  1 20 37  7.60514108E-09
  1 20 38  7.60514108E-09
  1 20 39  7.60514108E-09
  1 20 40  7.60514108E-09
  1 21 1  7.60514108E-09
  1 21 2  7.60514108E-09
  1 21 3  7.60514108E-09
  1 21 4  7.60514108E-09
  1 21 5  7.60514108E-09
  1 21 6  7.60514108E-09
  1 21 7  7.60514108E-09
  1 21 8  7.60514108E-09
  1 21 9  7.60514108E-09
  1 21 10  7.60514108E-09
  1 21 11  7.60514108E-09
  1 21 12  7.60514108E-09
  1 21 13  7.60514108E-09
  1 21 14  7.60514108E-09
  1 21 15  7.60514108E-09
  1 21 16  7.60514108E-09
  1 21 17  7.60514108E-09
  1 21 18  7.60514108E-09
  1 21 19  7.60514108E-09
  1 21 20  7.60514108E-09
  1 21 21  7.60514108E-09
  1 21 22  7.60514108E-09
  1 21 23  7.60514108E-09
  1 21 24  7.60514108E-09
  1 21 25  7.60514108E-09
  1 21 26  7.60514108E-09
  1 21 27  7.60514108E-09
  1 21 28  7.60514108E-09
  1 21 29  7.60514108E-09
  1 21 30  7.60514108E-09
  1 21 31  7.60514108E-09
  1 21 32  7.60514108E-09
  1 21 33  7.60514108E-09
  1 21 34  7.60514108E-09
  1 21 35  7.60514108E-09
  1 21 36  7.60514108E-09
  1 22 1  7.60514108E-09
  1 22 2  7.60514108E-09
  1 22 3  7.60514108E-09
  1 22 4  7.60514108E-09
  1 22 5  7.60514108E-09
  1 22 6  7.60514108E-09
  1 22 7  7.60514108E-09
  1 22 8  7.60514108E-09
  1 22 9  7.60514108E-09
  1 22 10  7.60514108E-09
  1 22 11  7.60514108E-09
  1 22 12  7.60514108E-09
  1 22 13  7.60514108E-09
  1 22 14  7.60514108E-09
  1 22 15  7.60514108E-09
  1 22 16  7.60514108E-09
  1 22 17  7.60514108E-09
  1 22 18  7.60514108E-09
  1 22 19  7.60514108E-09
  1 22 20  7.60514108E-09
  1 22 21  7.60514108E-09
  1 22 22  7.60514108E-09
  1 22 23  7.60514108E-09
  1 22 24  7.60514108E-09
  1 22 25  7.60514108E-09
  1 22 26  7.60514108E-09
  1 22 27  7.60514108E-09
  1 22 28  7.60514108E-09
  1 22 29  7.60514108E-09
  1 22 30  7.60514108E-09
  1 22 31  7.60514108E-09
  1 22 32  7.60514108E-09
  1 22 33  7.60514108E-09
  1 22 34  7.60514108E-09
  1 22 35  7.60514108E-09
  1 22 36  7.60514108E-09
  1 23 1  7.60514108E-09
  1 23 2  7.60514108E-09
  1 23 3  7.60514108E-09
  1 23 4  7.60514108E-09
  1 23 5  7.60514108E-09
  1 23 6  7.60514108E-09
  1 23 7  7.60514108E-09
  1 23 8  7.60514108E-09
  1 23 9  7.60514108E-09
  1 23 10  7.60514108E-09
  1 23 11  7.60514108E-09
  1 23 12  7.60514108E-09
  1 23 13  7.60514108E-09
  1 23 14  7.60514108E-09
  1 23 15  7.60514108E-09
  1 23 16  7.60514108E-09
  1 23 17  7.60514108E-09
  1 23 18  7.60514108E-09
  1 23 19  7.60514108E-09
  1 23 20  7.60514108E-09
  1 23 21  7.60514108E-09
  1 23 22  7.60514108E-09
  1 23 23  7.60514108E-09
  1 23 24  7.60514108E-09
  1 23 25  7.60514108E-09
  1 23 26  7.60514108E-09
  1 23 27  7.60514108E-09
  1 23 28  7.60514108E-09
  1 23 29  7.60514108E-09
  1 23 30  7.60514108E-09
  1 23 31  7.60514108E-09
  1 23 32  7.60514108E-09
  1 23 33  7.60514108E-09
  1 23 34  7.60514108E-09
  1 23 35  7.60514108E-09
  1 23 36  7.60514108E-09
  1 24 1  7.60514108E-09
  1 24 2  7.60514108E-09
  1 24 3  7.60514108E-09
  1 24 4  7.60514108E-09
  1 24 5  7.60514108E-09
  1 24 6  7.60514108E-09
  1 24 7  7.60514108E-09
  1 24 8  7.60514108E-09
  1 24 9  7.60514108E-09
  1 24 10  7.60514108E-09
  1 24 11  7.60514108E-09
  1 24 12  7.60514108E-09
  1 24 13  7.60514108E-09
  1 24 14  7.60514108E-09
  1 24 15  7.60514108E-09
  1 24 16  7.60514108E-09
  1 24 17  7.60514108E-09
  1 24 18  7.60514108E-09
  1 24 19  7.60514108E-09
  1 24 20  7.60514108E-09
  1 24 21  7.60514108E-09
  1 24 22  7.60514108E-09
  1 24 23  7.60514108E-09
  1 24 24  7.60514108E-09
  1 24 25  7.60514108E-09
  1 24 26  7.60514108E-09
  1 24 27  7.60514108E-09
  1 24 28  7.60514108E-09
  1 24 29  7.60514108E-09
  1 24 30  7.60514108E-09
  1 24 31  7.60514108E-09
  1 24 32  7.60514108E-09
  1 24 33  7.60514108E-09
  1 24 34  7.60514108E-09
  1 24 35  7.60514108E-09
  1 24 36  7.60514108E-09
  1 25 1  7.60514108E-09
  1 25 2  7.60514108E-09
  1 25 3  7.60514108E-09
  1 25 4  7.60514108E-09
  1 25 5  7.60514108E-09
  1 25 6  7.60514108E-09
  1 25 7  7.60514108E-09
  1 25 8  7.60514108E-09
  1 25 9  7.60514108E-09
  1 25 10  7.60514108E-09
  1 25 11  7.60514108E-09
  1 25 12  7.60514108E-09
  1 25 13  7.60514108E-09
  1 25 14  7.60514108E-09
  1 25 15  7.60514108E-09
  1 25 16  7.60514108E-09
  1 25 17  7.60514108E-09
  1 25 18  7.60514108E-09
  1 25 19  7.60514108E-09
  1 25 20  7.60514108E-09
  1 25 21  7.60514108E-09
  1 25 22  7.60514108E-09
  1 25 23  7.60514108E-09
  1 25 24  7.60514108E-09
  1 25 25  7.60514108E-09
  1 25 26  7.60514108E-09
  1 25 27  7.60514108E-09
  1 25 28  7.60514108E-09
  1 25 29  7.60514108E-09
  1 25 30  7.60514108E-09
  1 25 31  7.60514108E-09
  1 25 32  7.60514108E-09
  1 25 33  7.60514108E-09
  1 25 34  7.60514108E-09
  1 25 35  7.60514108E-09
  1 25 36  7.60514108E-09
  1 26 1  7.60514108E-09
  1 26 2  7.60514108E-09
  1 26 3  7.60514108E-09
  1 26 4  7.60514108E-09
  1 26 5  7.60514108E-09
  1 26 6  7.60514108E-09
  1 26 7  7.60514108E-09
  1 26 8  7.60514108E-09
  1 26 9  7.60514108E-09
  1 26 10  7.60514108E-09
  1 26 11  7.60514108E-09
  1 26 12  7.60514108E-09
  1 26 13  7.60514108E-09
  1 26 14  7.60514108E-09
  1 26 15  7.60514108E-09
  1 26 16  7.60514108E-09
  1 26 17  7.60514108E-09
  1 26 18  7.60514108E-09
  1 26 19  7.60514108E-09
  1 26 20  7.60514108E-09
  1 26 21  7.60514108E-09
  1 26 22  7.60514108E-09
  1 26 23  7.60514108E-09
  1 26 24  7.60514108E-09
  1 26 25  7.60514108E-09
  1 26 26  7.60514108E-09
  1 26 27  7.60514108E-09
  1 26 28  7.60514108E-09
  1 26 29  7.60514108E-09
  1 26 30  7.60514108E-09
  1 26 31  7.60514108E-09
  1 26 32  7.60514108E-09
  1 26 33  7.60514108E-09
  1 26 34  7.60514108E-09
  1 26 35  7.60514108E-09
  1 26 36  7.60514108E-09
  1 27 1  7.60514108E-09
  1 27 2  7.60514108E-09
  1 27 3  7.60514108E-09
  1 27 4  7.60514108E-09
  1 27 5  7.60514108E-09
  1 27 6  7.60514108E-09
  1 27 7  7.60514108E-09
  1 27 8  7.60514108E-09
  1 27 12  7.60514108E-09
  1 27 13  7.60514108E-09
  1 27 14  7.60514108E-09
  1 27 15  7.60514108E-09
  1 27 16  7.60514108E-09
  1 27 17  7.60514108E-09
  1 27 18  7.60514108E-09
  1 27 19  7.60514108E-09
  1 27 20  7.60514108E-09
  1 27 21  7.60514108E-09
  1 27 22  7.60514108E-09
  1 27 23  7.60514108E-09
  1 27 24  7.60514108E-09
  1 27 25  7.60514108E-09
  1 27 26  7.60514108E-09
  1 27 27  7.60514108E-09
  1 27 28  7.60514108E-09
  1 27 29  7.60514108E-09
  1 27 30  7.60514108E-09
  1 27 31  7.60514108E-09
  1 27 32  7.60514108E-09
  1 27 33  7.60514108E-09
  1 27 34  7.60514108E-09
  1 27 35  7.60514108E-09
  1 27 36  7.60514108E-09
  1 28 1  7.60514108E-09
  1 28 2  7.60514108E-09
  1 28 3  7.60514108E-09
  1 28 4  7.60514108E-09
  1 28 5  7.60514108E-09
  1 28 6  7.60514108E-09
  1 28 7  7.60514108E-09
  1 28 8  7.60514108E-09
  1 28 12  7.60514108E-09
  1 28 13  7.60514108E-09
  1 28 14  7.60514108E-09
  1 28 15  7.60514108E-09
  1 28 16  7.60514108E-09
  1 28 17  7.60514108E-09
  1 28 18  7.60514108E-09
  1 28 19  7.60514108E-09
  1 28 20  7.60514108E-09
  1 28 21  7.60514108E-09
  1 28 22  7.60514108E-09
  1 28 23  7.60514108E-09
  1 28 24  7.60514108E-09
  1 28 25  7.60514108E-09
  1 28 26  7.60514108E-09
  1 28 27  7.60514108E-09
  1 28 28  7.60514108E-09
  1 28 29  7.60514108E-09
  1 28 30  7.60514108E-09
  1 28 31  7.60514108E-09
  1 28 32  7.60514108E-09
  1 28 33  7.60514108E-09
  1 28 34  7.60514108E-09
  1 28 35  7.60514108E-09
  1 29 1  7.60514108E-09
  1 29 2  7.60514108E-09
  1 29 3  7.60514108E-09
  1 29 4  7.60514108E-09
  1 29 5  7.60514108E-09
  1 29 6  7.60514108E-09
  1 29 7  7.60514108E-09
  1 29 12  7.60514108E-09
  1 29 13  7.60514108E-09
  1 29 14  7.60514108E-09
  1 29 15  7.60514108E-09
  1 29 16  7.60514108E-09
  1 29 17  7.60514108E-09
  1 29 18  7.60514108E-09
  1 29 19  7.60514108E-09
  1 29 20  7.60514108E-09
  1 29 21  7.60514108E-09
  1 29 22  7.60514108E-09
  1 29 23  7.60514108E-09
  1 29 24  7.60514108E-09
  1 29 25  7.60514108E-09
  1 29 26  7.60514108E-09
  1 29 27  7.60514108E-09
  1 29 28  7.60514108E-09
  1 29 29  7.60514108E-09
  1 29 30  7.60514108E-09
  1 29 31  7.60514108E-09
  1 29 32  7.60514108E-09
  1 29 33  7.60514108E-09
  1 29 34  7.60514108E-09
  1 29 35  7.60514108E-09
  1 30 1  7.60514108E-09
  1 30 2  7.60514108E-09
  1 30 3  7.60514108E-09
  1 30 4  7.60514108E-09
  1 30 5  7.60514108E-09
  1 30 11  7.60514108E-09
  1 30 12  7.60514108E-09
  1 30 13  7.60514108E-09
  1 30 14  7.60514108E-09
  1 30 15  7.60514108E-09
  1 30 16  7.60514108E-09
  1 30 17  7.60514108E-09
  1 30 18  7.60514108E-09
  1 30 19  7.60514108E-09
  1 30 20  7.60514108E-09
  1 30 21  7.60514108E-09
  1 30 22  7.60514108E-09
  1 30 23  7.60514108E-09
  1 30 24  7.60514108E-09
  1 30 25  7.60514108E-09
  1 30 26  7.60514108E-09
  1 30 27  7.60514108E-09
  1 30 28  7.60514108E-09
  1 30 29  7.60514108E-09
  1 30 30  7.60514108E-09
  1 30 31  7.60514108E-09
  1 30 32  7.60514108E-09
  1 30 33  7.60514108E-09
  1 30 34  7.60514108E-09
  1 31 1  7.60514108E-09
  1 31 2  7.60514108E-09
  1 31 3  7.60514108E-09
  1 31 4  7.60514108E-09
  1 31 5  7.60514108E-09
  1 31 12  7.60514108E-09
  1 31 13  7.60514108E-09
  1 31 14  7.60514108E-09
  1 31 15  7.60514108E-09
  1 31 16  7.60514108E-09
  1 31 21  7.60514108E-09
  1 31 22  7.60514108E-09
  1 31 23  7.60514108E-09
  1 31 24  7.60514108E-09
  1 31 25  7.60514108E-09
  1 31 26  7.60514108E-09
  1 31 27  7.60514108E-09
  1 31 28  7.60514108E-09
  1 31 29  7.60514108E-09
  1 31 30  7.60514108E-09
  1 32 1  7.60514108E-09
  1 32 2  7.60514108E-09
  1 32 3  7.60514108E-09
  1 32 4  7.60514108E-09
  1 32 5  7.60514108E-09
  1 32 13  7.60514108E-09
  1 32 14  7.60514108E-09
  1 32 15  7.60514108E-09
  1 32 21  7.60514108E-09
  1 32 22  7.60514108E-09
  1 32 23  7.60514108E-09