# File generated by Flopy version 3.3.3 on 07/19/2021 at 15:11:13.
BEGIN griddata
  strt  LAYERED
    CONSTANT       0.00000000
    CONSTANT       0.00000000
    CONSTANT       0.00000000
END griddata

