# File generated by Flopy version 3.3.3 on 07/19/2021 at 15:11:13.
BEGIN options
END options

BEGIN dimensions
  MAXBOUND  1
END dimensions

BEGIN period  2
  3 19 26      -0.04000000
END period  2

