# File generated by Flopy version 3.3.3 on 07/19/2021 at 15:11:13.
BEGIN options
  TIME_UNITS  seconds
END options

BEGIN dimensions
  NPER  2
END dimensions

BEGIN perioddata
       1.00000000  1       1.00000000
  3.15576000E+07  72       1.10000000
END perioddata

