# File generated by Flopy version 3.3.3 on 07/19/2021 at 15:11:13.
BEGIN options
END options

BEGIN timing
  TDIS6  heathcote.tdis
END timing

BEGIN models
  gwf6  heathcote.nam  heathcote
END models

BEGIN exchanges
END exchanges

BEGIN solutiongroup  1
  ims6  heathcote.ims  heathcote
END solutiongroup  1

